/*---------------------------------------------------------------------------*\
| =========                 |                                                 |
| \\      /  F ield         | OpenFOAM: The Open Source CFD Toolbox           |
|  \\    /   O peration     | Version:  2412                                  |
|   \\  /    A nd           | Website:  www.openfoam.com                      |
|    \\/     M anipulation  |                                                 |
\*---------------------------------------------------------------------------*/
Build  : _b8cf4d35-20260127 OPENFOAM=2412 patch=260127 version=2412
Arch   : "LSB;label=32;scalar=64"
Exec   : simpleFoam
Date   : May 09 2026
Time   : 19:43:07
Host   : DESKTOP-GAMC4FP
PID    : 57826
I/O    : uncollated
Case   : /home/petros/cfd_projects/step_duct
nProcs : 1
trapFpe: Floating point exception trapping enabled (FOAM_SIGFPE).
fileModificationChecking : Monitoring run-time modified files using timeStampMaster (fileModificationSkew 5, maxFileModificationPolls 20)
allowSystemOperations : Allowing user-supplied system call operations

// * * * * * * * * * * * * * * * * * * * * * * * * * * * * * * * * * * * * * //
Create time

Create mesh for time = 0


SIMPLE: convergence criteria
    field p	 tolerance 0.0001
    field U	 tolerance 1e-06
    field "(k|epsilon|omega|f|v2)"	 tolerance 1e-05

Reading field p

Reading field U

Using dynamicCode for patch inlet on field U at line 29 in "/home/petros/cfd_projects/step_duct/0/U/boundaryField/inlet"
Reading/calculating face flux field phi

Selecting incompressible transport model Newtonian
Selecting turbulence model type RAS
Selecting RAS turbulence model kOmegaSST
Selecting patchDistMethod meshWave
RAS
{
    RASModel        kOmegaSST;
    turbulence      on;
    printCoeffs     on;
    productionLimit true;
    alphaK1         0.85;
    alphaK2         1;
    alphaOmega1     0.5;
    alphaOmega2     0.856;
    gamma1          0.555556;
    gamma2          0.44;
    beta1           0.075;
    beta2           0.0828;
    betaStar        0.09;
    a1              0.31;
    b1              1;
    c1              10;
    F3              false;
    decayControl    false;
    kInf            0;
    omegaInf        0;
}

No MRF models present

No finite volume options present

Starting time loop

turbulenceFields stressComponents: storing fields:
    turbulenceProperties:devReff

pressure pressureCoefficient:
    Operating mode: staticCoeff
    Not including hydrostatic effects

Sampled set:
    Uref -> raw
    x_by_h_m04 -> raw
    x_by_h_01 -> raw
    x_by_h_04 -> raw
    x_by_h_06 -> raw
    x_by_h_10 -> raw

wallShearStress wallShearStress:
    processing all (5) wall patches

Sampled set:
    line_X-0.051 -> raw
    line_X-0.025 -> raw
    line_X-0.013 -> raw
    line_X0.000 -> raw
    line_X0.013 -> raw
    line_X0.019 -> raw
    line_X0.025 -> raw
    line_X0.032 -> raw
    line_X0.038 -> raw
    line_X0.051 -> raw
    line_X0.064 -> raw
    line_X0.070 -> raw
    line_X0.076 -> raw
    line_X0.083 -> raw
    line_X0.089 -> raw
    line_X0.102 -> raw
    line_X0.127 -> raw
    line_X0.152 -> raw
    line_X0.178 -> raw
    line_X0.203 -> raw
    line_X0.254 -> raw
    line_X0.406 -> raw

Time = 1

smoothSolver:  Solving for Ux, Initial residual = 1, Final residual = 0.0648281, No Iterations 4
smoothSolver:  Solving for Uy, Initial residual = 1, Final residual = 0.0967381, No Iterations 4
GAMG:  Solving for p, Initial residual = 1, Final residual = 0.0990963, No Iterations 4
time step continuity errors : sum local = 7.02168, global = -2.19765, cumulative = -2.19765
smoothSolver:  Solving for omega, Initial residual = 0.364384, Final residual = 0.02383, No Iterations 1
smoothSolver:  Solving for k, Initial residual = 1, Final residual = 0.0218746, No Iterations 2
ExecutionTime = 0.36 s  ClockTime = 1 s

Time = 2

smoothSolver:  Solving for Ux, Initial residual = 0.00759126, Final residual = 0.000394304, No Iterations 2
smoothSolver:  Solving for Uy, Initial residual = 0.103202, Final residual = 0.00687025, No Iterations 2
GAMG:  Solving for p, Initial residual = 0.559653, Final residual = 0.0510393, No Iterations 6
time step continuity errors : sum local = 8.59227, global = -0.610159, cumulative = -2.80781
smoothSolver:  Solving for omega, Initial residual = 0.0124368, Final residual = 0.000254194, No Iterations 2
smoothSolver:  Solving for k, Initial residual = 0.232255, Final residual = 0.0062022, No Iterations 2
ExecutionTime = 0.4 s  ClockTime = 1 s

Time = 3

smoothSolver:  Solving for Ux, Initial residual = 0.00870483, Final residual = 0.000589303, No Iterations 2
smoothSolver:  Solving for Uy, Initial residual = 0.0852193, Final residual = 0.00630206, No Iterations 2
GAMG:  Solving for p, Initial residual = 0.0354063, Final residual = 0.00227261, No Iterations 2
time step continuity errors : sum local = 4.53617, global = -0.194015, cumulative = -3.00182
smoothSolver:  Solving for omega, Initial residual = 0.00714792, Final residual = 0.000211606, No Iterations 2
smoothSolver:  Solving for k, Initial residual = 0.242821, Final residual = 0.00475176, No Iterations 2
ExecutionTime = 0.42 s  ClockTime = 1 s

Time = 4

smoothSolver:  Solving for Ux, Initial residual = 0.00710771, Final residual = 0.000477447, No Iterations 2
smoothSolver:  Solving for Uy, Initial residual = 0.0808576, Final residual = 0.00570071, No Iterations 2
GAMG:  Solving for p, Initial residual = 0.0391061, Final residual = 0.0030907, No Iterations 2
time step continuity errors : sum local = 4.35896, global = -0.0486703, cumulative = -3.05049
smoothSolver:  Solving for omega, Initial residual = 0.00999239, Final residual = 0.000302756, No Iterations 2
smoothSolver:  Solving for k, Initial residual = 0.350078, Final residual = 0.0201402, No Iterations 1
ExecutionTime = 0.43 s  ClockTime = 1 s

Time = 5

smoothSolver:  Solving for Ux, Initial residual = 0.00575379, Final residual = 0.000389332, No Iterations 2
smoothSolver:  Solving for Uy, Initial residual = 0.0793122, Final residual = 0.00517724, No Iterations 2
GAMG:  Solving for p, Initial residual = 0.0791256, Final residual = 0.00702797, No Iterations 2
time step continuity errors : sum local = 3.5235, global = 0.0238166, cumulative = -3.02668
smoothSolver:  Solving for omega, Initial residual = 0.00671718, Final residual = 0.00020531, No Iterations 2
smoothSolver:  Solving for k, Initial residual = 0.389292, Final residual = 0.00976785, No Iterations 1
bounding k, min: -2.69426e-06 max: 0.874874 average: 0.000729512
ExecutionTime = 0.45 s  ClockTime = 1 s

Time = 6

smoothSolver:  Solving for Ux, Initial residual = 0.00540413, Final residual = 0.000371899, No Iterations 2
smoothSolver:  Solving for Uy, Initial residual = 0.0742361, Final residual = 0.00485768, No Iterations 2
GAMG:  Solving for p, Initial residual = 0.0814658, Final residual = 0.00700739, No Iterations 3
time step continuity errors : sum local = 2.51947, global = 0.0431434, cumulative = -2.98353
smoothSolver:  Solving for omega, Initial residual = 0.00445078, Final residual = 0.000140596, No Iterations 2
smoothSolver:  Solving for k, Initial residual = 0.215051, Final residual = 0.00378938, No Iterations 1
ExecutionTime = 0.47 s  ClockTime = 1 s

Time = 7

smoothSolver:  Solving for Ux, Initial residual = 0.0050754, Final residual = 0.000363333, No Iterations 2
smoothSolver:  Solving for Uy, Initial residual = 0.0691476, Final residual = 0.00456513, No Iterations 2
GAMG:  Solving for p, Initial residual = 0.0345721, Final residual = 0.00308692, No Iterations 3
time step continuity errors : sum local = 1.91297, global = -0.0178446, cumulative = -3.00138
smoothSolver:  Solving for omega, Initial residual = 0.00329344, Final residual = 0.000100011, No Iterations 2
smoothSolver:  Solving for k, Initial residual = 0.121172, Final residual = 0.00195883, No Iterations 1
ExecutionTime = 0.5 s  ClockTime = 1 s

Time = 8

smoothSolver:  Solving for Ux, Initial residual = 0.00399072, Final residual = 0.000291356, No Iterations 2
smoothSolver:  Solving for Uy, Initial residual = 0.0588165, Final residual = 0.00392171, No Iterations 2
GAMG:  Solving for p, Initial residual = 0.0183396, Final residual = 0.0015223, No Iterations 3
time step continuity errors : sum local = 1.29623, global = 0.0206739, cumulative = -2.9807
smoothSolver:  Solving for omega, Initial residual = 0.00138975, Final residual = 4.47835e-05, No Iterations 2
smoothSolver:  Solving for k, Initial residual = 0.0779091, Final residual = 0.00128384, No Iterations 1
ExecutionTime = 0.52 s  ClockTime = 1 s

Time = 9

smoothSolver:  Solving for Ux, Initial residual = 0.00599305, Final residual = 0.000442505, No Iterations 2
smoothSolver:  Solving for Uy, Initial residual = 0.0659095, Final residual = 0.00440738, No Iterations 2
GAMG:  Solving for p, Initial residual = 0.0158193, Final residual = 0.00123167, No Iterations 3
time step continuity errors : sum local = 0.974848, global = -0.04534, cumulative = -3.02604
smoothSolver:  Solving for omega, Initial residual = 0.00367812, Final residual = 0.000116991, No Iterations 2
smoothSolver:  Solving for k, Initial residual = 0.0562331, Final residual = 0.000959822, No Iterations 1
ExecutionTime = 0.54 s  ClockTime = 1 s

Time = 10

smoothSolver:  Solving for Ux, Initial residual = 0.00599424, Final residual = 0.000442894, No Iterations 2
smoothSolver:  Solving for Uy, Initial residual = 0.0623203, Final residual = 0.00420594, No Iterations 2
GAMG:  Solving for p, Initial residual = 0.0136945, Final residual = 0.00124223, No Iterations 3
time step continuity errors : sum local = 0.98693, global = -0.100121, cumulative = -3.12616
smoothSolver:  Solving for omega, Initial residual = 0.00273795, Final residual = 8.06171e-05, No Iterations 2
smoothSolver:  Solving for k, Initial residual = 0.0433687, Final residual = 0.000824772, No Iterations 1
ExecutionTime = 0.56 s  ClockTime = 1 s

Time = 11

smoothSolver:  Solving for Ux, Initial residual = 0.00607366, Final residual = 0.000448924, No Iterations 2
smoothSolver:  Solving for Uy, Initial residual = 0.059717, Final residual = 0.00407818, No Iterations 2
GAMG:  Solving for p, Initial residual = 0.0103694, Final residual = 0.00102808, No Iterations 3
time step continuity errors : sum local = 0.985939, global = -0.145864, cumulative = -3.27203
smoothSolver:  Solving for omega, Initial residual = 0.00216615, Final residual = 6.82147e-05, No Iterations 2
smoothSolver:  Solving for k, Initial residual = 0.0338148, Final residual = 0.00074498, No Iterations 1
bounding k, min: -7.83454e-06 max: 5.65418 average: 0.00233316
ExecutionTime = 0.59 s  ClockTime = 1 s

Time = 12

smoothSolver:  Solving for Ux, Initial residual = 0.00664918, Final residual = 0.000493228, No Iterations 2
smoothSolver:  Solving for Uy, Initial residual = 0.0590531, Final residual = 0.00407746, No Iterations 2
GAMG:  Solving for p, Initial residual = 0.00903696, Final residual = 0.000890081, No Iterations 3
time step continuity errors : sum local = 0.933589, global = -0.162212, cumulative = -3.43424
smoothSolver:  Solving for omega, Initial residual = 0.00249322, Final residual = 7.41957e-05, No Iterations 2
smoothSolver:  Solving for k, Initial residual = 0.025098, Final residual = 0.000740758, No Iterations 1
ExecutionTime = 0.61 s  ClockTime = 1 s

Time = 13

smoothSolver:  Solving for Ux, Initial residual = 0.00662504, Final residual = 0.000491956, No Iterations 2
smoothSolver:  Solving for Uy, Initial residual = 0.0567327, Final residual = 0.00395494, No Iterations 2
GAMG:  Solving for p, Initial residual = 0.0083762, Final residual = 0.000802509, No Iterations 3
time step continuity errors : sum local = 0.881024, global = -0.159786, cumulative = -3.59403
smoothSolver:  Solving for omega, Initial residual = 0.00180266, Final residual = 5.37418e-05, No Iterations 2
smoothSolver:  Solving for k, Initial residual = 0.022602, Final residual = 0.000775125, No Iterations 1
ExecutionTime = 0.63 s  ClockTime = 1 s

Time = 14

smoothSolver:  Solving for Ux, Initial residual = 0.00652186, Final residual = 0.000483969, No Iterations 2
smoothSolver:  Solving for Uy, Initial residual = 0.0544643, Final residual = 0.00382311, No Iterations 2
GAMG:  Solving for p, Initial residual = 0.00752649, Final residual = 0.000723693, No Iterations 3
time step continuity errors : sum local = 0.859057, global = -0.152812, cumulative = -3.74684
smoothSolver:  Solving for omega, Initial residual = 0.00128473, Final residual = 3.84047e-05, No Iterations 2
smoothSolver:  Solving for k, Initial residual = 0.0209601, Final residual = 0.000826986, No Iterations 1
bounding k, min: -0.000357736 max: 6.09598 average: 0.00437259
ExecutionTime = 0.65 s  ClockTime = 1 s

Time = 15

smoothSolver:  Solving for Ux, Initial residual = 0.00696409, Final residual = 0.000517489, No Iterations 2
smoothSolver:  Solving for Uy, Initial residual = 0.053574, Final residual = 0.00379217, No Iterations 2
GAMG:  Solving for p, Initial residual = 0.0070112, Final residual = 0.000669907, No Iterations 3
time step continuity errors : sum local = 0.858512, global = -0.135999, cumulative = -3.88284
smoothSolver:  Solving for omega, Initial residual = 0.00128704, Final residual = 4.14114e-05, No Iterations 2
smoothSolver:  Solving for k, Initial residual = 0.0203391, Final residual = 0.00100935, No Iterations 1
bounding k, min: -0.0026696 max: 6.16066 average: 0.00565165
ExecutionTime = 0.67 s  ClockTime = 1 s

Time = 16

smoothSolver:  Solving for Ux, Initial residual = 0.00679142, Final residual = 0.000503729, No Iterations 2
smoothSolver:  Solving for Uy, Initial residual = 0.0516175, Final residual = 0.00367374, No Iterations 2
GAMG:  Solving for p, Initial residual = 0.00638019, Final residual = 0.00058118, No Iterations 3
time step continuity errors : sum local = 0.792151, global = -0.124251, cumulative = -4.00709
smoothSolver:  Solving for omega, Initial residual = 0.000947573, Final residual = 2.97544e-05, No Iterations 2
smoothSolver:  Solving for k, Initial residual = 0.0202667, Final residual = 0.001048, No Iterations 1
bounding k, min: -0.0003461 max: 6.20512 average: 0.00745446
ExecutionTime = 0.69 s  ClockTime = 1 s

Time = 17

smoothSolver:  Solving for Ux, Initial residual = 0.00746068, Final residual = 0.000554276, No Iterations 2
smoothSolver:  Solving for Uy, Initial residual = 0.0515602, Final residual = 0.00368919, No Iterations 2
GAMG:  Solving for p, Initial residual = 0.00617978, Final residual = 0.000504207, No Iterations 3
time step continuity errors : sum local = 0.718697, global = -0.124944, cumulative = -4.13203
smoothSolver:  Solving for omega, Initial residual = 0.00107379, Final residual = 3.37544e-05, No Iterations 2
smoothSolver:  Solving for k, Initial residual = 0.019238, Final residual = 0.00106522, No Iterations 1
bounding k, min: -0.00545013 max: 6.23646 average: 0.0099711
ExecutionTime = 0.72 s  ClockTime = 1 s

Time = 18

smoothSolver:  Solving for Ux, Initial residual = 0.00756324, Final residual = 0.000562046, No Iterations 2
smoothSolver:  Solving for Uy, Initial residual = 0.0505596, Final residual = 0.00362993, No Iterations 2
GAMG:  Solving for p, Initial residual = 0.00635423, Final residual = 0.000608208, No Iterations 2
time step continuity errors : sum local = 0.883596, global = -0.193146, cumulative = -4.32518
smoothSolver:  Solving for omega, Initial residual = 0.000915741, Final residual = 2.79272e-05, No Iterations 2
smoothSolver:  Solving for k, Initial residual = 0.0193304, Final residual = 0.00114311, No Iterations 1
ExecutionTime = 0.73 s  ClockTime = 1 s

Time = 19

smoothSolver:  Solving for Ux, Initial residual = 0.0078946, Final residual = 0.000587395, No Iterations 2
smoothSolver:  Solving for Uy, Initial residual = 0.0501807, Final residual = 0.00360719, No Iterations 2
GAMG:  Solving for p, Initial residual = 0.00696778, Final residual = 0.00057397, No Iterations 3
time step continuity errors : sum local = 0.751767, global = -0.154133, cumulative = -4.47931
smoothSolver:  Solving for omega, Initial residual = 0.000899491, Final residual = 2.69241e-05, No Iterations 2
smoothSolver:  Solving for k, Initial residual = 0.0193443, Final residual = 0.00120274, No Iterations 1
bounding k, min: -0.00207024 max: 6.27514 average: 0.0186084
ExecutionTime = 0.76 s  ClockTime = 1 s

Time = 20

smoothSolver:  Solving for Ux, Initial residual = 0.00811397, Final residual = 0.00060286, No Iterations 2
smoothSolver:  Solving for Uy, Initial residual = 0.0496319, Final residual = 0.00358326, No Iterations 2
GAMG:  Solving for p, Initial residual = 0.00926217, Final residual = 0.000726915, No Iterations 2
time step continuity errors : sum local = 0.756007, global = -0.161139, cumulative = -4.64045
smoothSolver:  Solving for omega, Initial residual = 0.000832016, Final residual = 2.33251e-05, No Iterations 2
smoothSolver:  Solving for k, Initial residual = 0.0191613, Final residual = 0.00121655, No Iterations 1
bounding k, min: -0.0124512 max: 6.28691 average: 0.0252888
ExecutionTime = 0.78 s  ClockTime = 1 s

Time = 21

smoothSolver:  Solving for Ux, Initial residual = 0.00840491, Final residual = 0.000625527, No Iterations 2
smoothSolver:  Solving for Uy, Initial residual = 0.0493072, Final residual = 0.00355694, No Iterations 2
GAMG:  Solving for p, Initial residual = 0.012072, Final residual = 0.00077529, No Iterations 3
time step continuity errors : sum local = 0.655747, global = -0.137849, cumulative = -4.7783
smoothSolver:  Solving for omega, Initial residual = 0.000810943, Final residual = 2.34445e-05, No Iterations 2
smoothSolver:  Solving for k, Initial residual = 0.0182383, Final residual = 0.00125772, No Iterations 1
bounding k, min: -0.00166728 max: 6.29541 average: 0.0326075
ExecutionTime = 0.8 s  ClockTime = 1 s

Time = 22

smoothSolver:  Solving for Ux, Initial residual = 0.00914559, Final residual = 0.000680367, No Iterations 2
smoothSolver:  Solving for Uy, Initial residual = 0.0495931, Final residual = 0.00357914, No Iterations 2
GAMG:  Solving for p, Initial residual = 0.0144244, Final residual = 0.00107309, No Iterations 2
time step continuity errors : sum local = 0.780841, global = -0.146178, cumulative = -4.92448
smoothSolver:  Solving for omega, Initial residual = 0.0010016, Final residual = 2.78771e-05, No Iterations 2
smoothSolver:  Solving for k, Initial residual = 0.0183153, Final residual = 0.00128423, No Iterations 1
bounding k, min: -0.000253742 max: 6.30139 average: 0.0396262
ExecutionTime = 0.82 s  ClockTime = 1 s

Time = 23

smoothSolver:  Solving for Ux, Initial residual = 0.00904163, Final residual = 0.000673368, No Iterations 2
smoothSolver:  Solving for Uy, Initial residual = 0.0490465, Final residual = 0.00353236, No Iterations 2
GAMG:  Solving for p, Initial residual = 0.0170038, Final residual = 0.000995969, No Iterations 3
time step continuity errors : sum local = 0.633705, global = -0.109094, cumulative = -5.03357
smoothSolver:  Solving for omega, Initial residual = 0.000823839, Final residual = 2.1893e-05, No Iterations 2
smoothSolver:  Solving for k, Initial residual = 0.0188284, Final residual = 0.00136322, No Iterations 1
bounding k, min: -0.0030611 max: 6.30546 average: 0.0483097
ExecutionTime = 0.84 s  ClockTime = 1 s

Time = 24

smoothSolver:  Solving for Ux, Initial residual = 0.00964926, Final residual = 0.000717811, No Iterations 2
smoothSolver:  Solving for Uy, Initial residual = 0.0491461, Final residual = 0.00353852, No Iterations 2
GAMG:  Solving for p, Initial residual = 0.0194734, Final residual = 0.00118743, No Iterations 2
time step continuity errors : sum local = 0.687094, global = -0.0978244, cumulative = -5.1314
smoothSolver:  Solving for omega, Initial residual = 0.000940502, Final residual = 2.45413e-05, No Iterations 2
smoothSolver:  Solving for k, Initial residual = 0.0188018, Final residual = 0.00147312, No Iterations 1
bounding k, min: -0.010669 max: 6.30805 average: 0.0589409
ExecutionTime = 0.87 s  ClockTime = 1 s

Time = 25

smoothSolver:  Solving for Ux, Initial residual = 0.00986971, Final residual = 0.000735428, No Iterations 2
smoothSolver:  Solving for Uy, Initial residual = 0.048882, Final residual = 0.00351242, No Iterations 2
GAMG:  Solving for p, Initial residual = 0.0218285, Final residual = 0.00187737, No Iterations 2
time step continuity errors : sum local = 0.982201, global = -0.00681725, cumulative = -5.13821
smoothSolver:  Solving for omega, Initial residual = 0.000905108, Final residual = 2.33514e-05, No Iterations 2
smoothSolver:  Solving for k, Initial residual = 0.0179593, Final residual = 0.00142657, No Iterations 1
bounding k, min: -0.00643285 max: 6.67115 average: 0.0716201
ExecutionTime = 0.89 s  ClockTime = 1 s

Time = 26

smoothSolver:  Solving for Ux, Initial residual = 0.0100585, Final residual = 0.000749526, No Iterations 2
smoothSolver:  Solving for Uy, Initial residual = 0.0486743, Final residual = 0.00349174, No Iterations 2
GAMG:  Solving for p, Initial residual = 0.0243569, Final residual = 0.00204304, No Iterations 2
time step continuity errors : sum local = 0.981781, global = 0.0391463, cumulative = -5.09907
smoothSolver:  Solving for omega, Initial residual = 0.000868792, Final residual = 2.2123e-05, No Iterations 2
smoothSolver:  Solving for k, Initial residual = 0.016364, Final residual = 0.0013459, No Iterations 1
bounding k, min: -0.00665726 max: 7.18874 average: 0.0858349
ExecutionTime = 0.91 s  ClockTime = 1 s

Time = 27

smoothSolver:  Solving for Ux, Initial residual = 0.0102295, Final residual = 0.00076246, No Iterations 2
smoothSolver:  Solving for Uy, Initial residual = 0.0484448, Final residual = 0.00346757, No Iterations 2
GAMG:  Solving for p, Initial residual = 0.0266511, Final residual = 0.00187668, No Iterations 2
time step continuity errors : sum local = 0.82495, global = 0.0785309, cumulative = -5.02054
smoothSolver:  Solving for omega, Initial residual = 0.000877218, Final residual = 2.14728e-05, No Iterations 2
smoothSolver:  Solving for k, Initial residual = 0.0149819, Final residual = 0.00129116, No Iterations 1
bounding k, min: -0.00315412 max: 7.66543 average: 0.101179
ExecutionTime = 0.94 s  ClockTime = 1 s

Time = 28

smoothSolver:  Solving for Ux, Initial residual = 0.0103672, Final residual = 0.000771755, No Iterations 2
smoothSolver:  Solving for Uy, Initial residual = 0.0480769, Final residual = 0.00343472, No Iterations 2
GAMG:  Solving for p, Initial residual = 0.0289616, Final residual = 0.00215436, No Iterations 2
time step continuity errors : sum local = 0.870773, global = 0.147497, cumulative = -4.87304
smoothSolver:  Solving for omega, Initial residual = 0.000859092, Final residual = 2.05332e-05, No Iterations 2
smoothSolver:  Solving for k, Initial residual = 0.0137405, Final residual = 0.00118724, No Iterations 1
bounding k, min: -0.010339 max: 8.09145 average: 0.117297
ExecutionTime = 0.96 s  ClockTime = 1 s

Time = 29

smoothSolver:  Solving for Ux, Initial residual = 0.0104608, Final residual = 0.000779868, No Iterations 2
smoothSolver:  Solving for Uy, Initial residual = 0.0478557, Final residual = 0.00341147, No Iterations 2
GAMG:  Solving for p, Initial residual = 0.0339532, Final residual = 0.00291209, No Iterations 2
time step continuity errors : sum local = 1.07224, global = 0.227673, cumulative = -4.64537
smoothSolver:  Solving for omega, Initial residual = 0.000823612, Final residual = 1.96809e-05, No Iterations 2
smoothSolver:  Solving for k, Initial residual = 0.0129576, Final residual = 0.00112601, No Iterations 1
bounding k, min: -0.00902869 max: 8.48592 average: 0.134029
ExecutionTime = 0.98 s  ClockTime = 1 s

Time = 30

smoothSolver:  Solving for Ux, Initial residual = 0.0104961, Final residual = 0.000783525, No Iterations 2
smoothSolver:  Solving for Uy, Initial residual = 0.0476817, Final residual = 0.00338813, No Iterations 2
GAMG:  Solving for p, Initial residual = 0.0359582, Final residual = 0.00192009, No Iterations 3
time step continuity errors : sum local = 0.613784, global = 0.0822603, cumulative = -4.56311
smoothSolver:  Solving for omega, Initial residual = 0.000794749, Final residual = 1.86163e-05, No Iterations 2
smoothSolver:  Solving for k, Initial residual = 0.0119531, Final residual = 0.00105452, No Iterations 1
bounding k, min: -0.0157479 max: 8.83384 average: 0.150976
ExecutionTime = 1 s  ClockTime = 1 s

Time = 31

smoothSolver:  Solving for Ux, Initial residual = 0.0104568, Final residual = 0.000780958, No Iterations 2
smoothSolver:  Solving for Uy, Initial residual = 0.0476143, Final residual = 0.00337621, No Iterations 2
GAMG:  Solving for p, Initial residual = 0.0548577, Final residual = 0.00247352, No Iterations 2
time step continuity errors : sum local = 0.533087, global = 0.0314757, cumulative = -4.53163
smoothSolver:  Solving for omega, Initial residual = 0.000780916, Final residual = 1.79467e-05, No Iterations 2
smoothSolver:  Solving for k, Initial residual = 0.0112477, Final residual = 0.00102112, No Iterations 1
bounding k, min: -0.010204 max: 9.13884 average: 0.168357
ExecutionTime = 1.03 s  ClockTime = 1 s

Time = 32

smoothSolver:  Solving for Ux, Initial residual = 0.0103976, Final residual = 0.000778016, No Iterations 2
smoothSolver:  Solving for Uy, Initial residual = 0.0475398, Final residual = 0.00335792, No Iterations 2
GAMG:  Solving for p, Initial residual = 0.0531381, Final residual = 0.00344422, No Iterations 2
time step continuity errors : sum local = 0.719459, global = 0.0977047, cumulative = -4.43393
smoothSolver:  Solving for omega, Initial residual = 0.000748909, Final residual = 1.81237e-05, No Iterations 2
smoothSolver:  Solving for k, Initial residual = 0.0107543, Final residual = 0.000970231, No Iterations 1
bounding k, min: -0.00884952 max: 9.41153 average: 0.185837
ExecutionTime = 1.06 s  ClockTime = 2 s

Time = 33

smoothSolver:  Solving for Ux, Initial residual = 0.0102587, Final residual = 0.000769647, No Iterations 2
smoothSolver:  Solving for Uy, Initial residual = 0.0475661, Final residual = 0.00336597, No Iterations 2
GAMG:  Solving for p, Initial residual = 0.0561218, Final residual = 0.0044233, No Iterations 2
time step continuity errors : sum local = 0.90293, global = 0.153481, cumulative = -4.28044
smoothSolver:  Solving for omega, Initial residual = 0.000721899, Final residual = 1.70167e-05, No Iterations 2
smoothSolver:  Solving for k, Initial residual = 0.0102735, Final residual = 0.000933806, No Iterations 1
bounding k, min: -0.00831473 max: 9.65733 average: 0.203794
ExecutionTime = 1.08 s  ClockTime = 2 s

Time = 34

smoothSolver:  Solving for Ux, Initial residual = 0.0100703, Final residual = 0.000759311, No Iterations 2
smoothSolver:  Solving for Uy, Initial residual = 0.0477741, Final residual = 0.00337348, No Iterations 2
GAMG:  Solving for p, Initial residual = 0.0603238, Final residual = 0.00301983, No Iterations 3
time step continuity errors : sum local = 0.551853, global = 0.107255, cumulative = -4.17319
smoothSolver:  Solving for omega, Initial residual = 0.000696497, Final residual = 1.63711e-05, No Iterations 2
smoothSolver:  Solving for k, Initial residual = 0.00996434, Final residual = 0.000925885, No Iterations 1
bounding k, min: -0.0286423 max: 9.89053 average: 0.221794
ExecutionTime = 1.1 s  ClockTime = 2 s

Time = 35

smoothSolver:  Solving for Ux, Initial residual = 0.00979843, Final residual = 0.00074058, No Iterations 2
smoothSolver:  Solving for Uy, Initial residual = 0.0478653, Final residual = 0.00338552, No Iterations 2
GAMG:  Solving for p, Initial residual = 0.105722, Final residual = 0.00520671, No Iterations 2
time step continuity errors : sum local = 0.540437, global = 0.129055, cumulative = -4.04413
smoothSolver:  Solving for omega, Initial residual = 0.000677682, Final residual = 1.6086e-05, No Iterations 2
smoothSolver:  Solving for k, Initial residual = 0.00948711, Final residual = 0.000896906, No Iterations 1
bounding k, min: -0.00598688 max: 10.098 average: 0.239655
ExecutionTime = 1.12 s  ClockTime = 2 s

Time = 36

smoothSolver:  Solving for Ux, Initial residual = 0.00952955, Final residual = 0.000722822, No Iterations 2
smoothSolver:  Solving for Uy, Initial residual = 0.0479703, Final residual = 0.003402, No Iterations 2
GAMG:  Solving for p, Initial residual = 0.103514, Final residual = 0.00709563, No Iterations 2
time step continuity errors : sum local = 0.732928, global = 0.150585, cumulative = -3.89355
smoothSolver:  Solving for omega, Initial residual = 0.000656501, Final residual = 1.55829e-05, No Iterations 2
smoothSolver:  Solving for k, Initial residual = 0.00917752, Final residual = 0.000891327, No Iterations 1
bounding k, min: -0.000711151 max: 10.284 average: 0.257486
ExecutionTime = 1.14 s  ClockTime = 2 s

Time = 37

smoothSolver:  Solving for Ux, Initial residual = 0.00921933, Final residual = 0.00069961, No Iterations 2
smoothSolver:  Solving for Uy, Initial residual = 0.0480445, Final residual = 0.00342103, No Iterations 2
GAMG:  Solving for p, Initial residual = 0.122717, Final residual = 0.00540373, No Iterations 3
time step continuity errors : sum local = 0.481878, global = 0.131889, cumulative = -3.76166
smoothSolver:  Solving for omega, Initial residual = 0.00063422, Final residual = 1.50505e-05, No Iterations 2
smoothSolver:  Solving for k, Initial residual = 0.0088049, Final residual = 0.00087507, No Iterations 1
bounding k, min: -0.0256643 max: 10.4515 average: 0.275227
ExecutionTime = 1.17 s  ClockTime = 2 s

Time = 38

smoothSolver:  Solving for Ux, Initial residual = 0.00694651, Final residual = 0.000523356, No Iterations 2
smoothSolver:  Solving for Uy, Initial residual = 0.0471846, Final residual = 0.00336248, No Iterations 2
GAMG:  Solving for p, Initial residual = 0.0896851, Final residual = 0.00392084, No Iterations 2
time step continuity errors : sum local = 0.492101, global = 0.163336, cumulative = -3.59832
smoothSolver:  Solving for omega, Initial residual = 0.000287582, Final residual = 6.65667e-06, No Iterations 2
smoothSolver:  Solving for k, Initial residual = 0.00853296, Final residual = 0.000128128, No Iterations 2
bounding k, min: -0.0205608 max: 10.6295 average: 0.293011
ExecutionTime = 1.2 s  ClockTime = 2 s

Time = 39

smoothSolver:  Solving for Ux, Initial residual = 0.00858274, Final residual = 0.000645959, No Iterations 2
smoothSolver:  Solving for Uy, Initial residual = 0.0479177, Final residual = 0.00343739, No Iterations 2
GAMG:  Solving for p, Initial residual = 0.0840627, Final residual = 0.00533194, No Iterations 2
time step continuity errors : sum local = 0.68575, global = 0.170316, cumulative = -3.42801
smoothSolver:  Solving for omega, Initial residual = 0.000577853, Final residual = 1.3606e-05, No Iterations 2
smoothSolver:  Solving for k, Initial residual = 0.00809268, Final residual = 0.0008087, No Iterations 1
bounding k, min: -0.00462142 max: 10.7608 average: 0.310219
ExecutionTime = 1.21 s  ClockTime = 2 s

Time = 40

smoothSolver:  Solving for Ux, Initial residual = 0.0082395, Final residual = 0.000615438, No Iterations 2
smoothSolver:  Solving for Uy, Initial residual = 0.0479556, Final residual = 0.00344718, No Iterations 2
GAMG:  Solving for p, Initial residual = 0.069516, Final residual = 0.00599592, No Iterations 2
time step continuity errors : sum local = 0.911387, global = 0.0360782, cumulative = -3.39193
smoothSolver:  Solving for omega, Initial residual = 0.00056551, Final residual = 1.30903e-05, No Iterations 2
smoothSolver:  Solving for k, Initial residual = 0.00787313, Final residual = 0.000123881, No Iterations 2
bounding k, min: -0.00522756 max: 10.8998 average: 0.327871
ExecutionTime = 1.23 s  ClockTime = 2 s

Time = 41

smoothSolver:  Solving for Ux, Initial residual = 0.00785397, Final residual = 0.000581807, No Iterations 2
smoothSolver:  Solving for Uy, Initial residual = 0.0478248, Final residual = 0.00345861, No Iterations 2
GAMG:  Solving for p, Initial residual = 0.0456633, Final residual = 0.00267728, No Iterations 2
time step continuity errors : sum local = 0.60049, global = 0.159557, cumulative = -3.23237
smoothSolver:  Solving for omega, Initial residual = 0.000529398, Final residual = 1.21579e-05, No Iterations 2
smoothSolver:  Solving for k, Initial residual = 0.00749095, Final residual = 0.00012369, No Iterations 2
bounding k, min: -0.00273664 max: 11.021 average: 0.345267
ExecutionTime = 1.25 s  ClockTime = 2 s

Time = 42

smoothSolver:  Solving for Ux, Initial residual = 0.00594731, Final residual = 0.000433367, No Iterations 2
smoothSolver:  Solving for Uy, Initial residual = 0.0467447, Final residual = 0.003402, No Iterations 2
GAMG:  Solving for p, Initial residual = 0.0398664, Final residual = 0.00254164, No Iterations 2
time step continuity errors : sum local = 0.616746, global = 0.175923, cumulative = -3.05645
smoothSolver:  Solving for omega, Initial residual = 0.000255776, Final residual = 6.06019e-06, No Iterations 2
smoothSolver:  Solving for k, Initial residual = 0.00718628, Final residual = 0.000121556, No Iterations 2
bounding k, min: -0.0058184 max: 11.1255 average: 0.362598
ExecutionTime = 1.27 s  ClockTime = 2 s

Time = 43

smoothSolver:  Solving for Ux, Initial residual = 0.00741317, Final residual = 0.000540004, No Iterations 2
smoothSolver:  Solving for Uy, Initial residual = 0.0476867, Final residual = 0.00348369, No Iterations 2
GAMG:  Solving for p, Initial residual = 0.0416889, Final residual = 0.00285247, No Iterations 2
time step continuity errors : sum local = 0.67911, global = 0.169737, cumulative = -2.88671
smoothSolver:  Solving for omega, Initial residual = 0.000533628, Final residual = 1.2564e-05, No Iterations 2
smoothSolver:  Solving for k, Initial residual = 0.00696457, Final residual = 0.000123611, No Iterations 2
bounding k, min: -0.00383881 max: 11.2153 average: 0.380066
ExecutionTime = 1.29 s  ClockTime = 2 s

Time = 44

smoothSolver:  Solving for Ux, Initial residual = 0.00718236, Final residual = 0.000522304, No Iterations 2
smoothSolver:  Solving for Uy, Initial residual = 0.0476629, Final residual = 0.00349171, No Iterations 2
GAMG:  Solving for p, Initial residual = 0.0398703, Final residual = 0.00271891, No Iterations 2
time step continuity errors : sum local = 0.667782, global = 0.142578, cumulative = -2.74414
smoothSolver:  Solving for omega, Initial residual = 0.000528188, Final residual = 1.20653e-05, No Iterations 2
smoothSolver:  Solving for k, Initial residual = 0.00660368, Final residual = 0.000125652, No Iterations 2
bounding k, min: -0.00590879 max: 11.2921 average: 0.398258
ExecutionTime = 1.31 s  ClockTime = 2 s

Time = 45

smoothSolver:  Solving for Ux, Initial residual = 0.00699314, Final residual = 0.000508226, No Iterations 2
smoothSolver:  Solving for Uy, Initial residual = 0.0476583, Final residual = 0.00351385, No Iterations 2
GAMG:  Solving for p, Initial residual = 0.0366337, Final residual = 0.00241522, No Iterations 2
time step continuity errors : sum local = 0.608213, global = 0.123901, cumulative = -2.62024
smoothSolver:  Solving for omega, Initial residual = 0.000530055, Final residual = 1.21949e-05, No Iterations 2
smoothSolver:  Solving for k, Initial residual = 0.00650194, Final residual = 0.00012688, No Iterations 2
bounding k, min: -0.00478653 max: 11.3586 average: 0.416022
ExecutionTime = 1.33 s  ClockTime = 2 s

Time = 46

smoothSolver:  Solving for Ux, Initial residual = 0.00679255, Final residual = 0.000495506, No Iterations 2
smoothSolver:  Solving for Uy, Initial residual = 0.0476434, Final residual = 0.00352911, No Iterations 2
GAMG:  Solving for p, Initial residual = 0.036991, Final residual = 0.00220643, No Iterations 2
time step continuity errors : sum local = 0.559691, global = 0.0983989, cumulative = -2.52184
smoothSolver:  Solving for omega, Initial residual = 0.000521006, Final residual = 1.17679e-05, No Iterations 2
smoothSolver:  Solving for k, Initial residual = 0.00629868, Final residual = 0.000127694, No Iterations 2
bounding k, min: -0.014154 max: 11.4188 average: 0.434245
ExecutionTime = 1.35 s  ClockTime = 2 s

Time = 47

smoothSolver:  Solving for Ux, Initial residual = 0.00670466, Final residual = 0.000491507, No Iterations 2
smoothSolver:  Solving for Uy, Initial residual = 0.04762, Final residual = 0.0035456, No Iterations 2
GAMG:  Solving for p, Initial residual = 0.0344998, Final residual = 0.00219273, No Iterations 2
time step continuity errors : sum local = 0.559898, global = 0.0593035, cumulative = -2.46253
smoothSolver:  Solving for omega, Initial residual = 0.000535912, Final residual = 1.19975e-05, No Iterations 2
smoothSolver:  Solving for k, Initial residual = 0.00621476, Final residual = 0.000129361, No Iterations 2
bounding k, min: -0.00410475 max: 11.9503 average: 0.452357
ExecutionTime = 1.37 s  ClockTime = 2 s

Time = 48

smoothSolver:  Solving for Ux, Initial residual = 0.00661088, Final residual = 0.000488828, No Iterations 2
smoothSolver:  Solving for Uy, Initial residual = 0.0476119, Final residual = 0.00355359, No Iterations 2
GAMG:  Solving for p, Initial residual = 0.0330449, Final residual = 0.00223536, No Iterations 2
time step continuity errors : sum local = 0.567835, global = 0.00963853, cumulative = -2.45289
smoothSolver:  Solving for omega, Initial residual = 0.000537104, Final residual = 1.20353e-05, No Iterations 2
smoothSolver:  Solving for k, Initial residual = 0.00611232, Final residual = 0.000125745, No Iterations 2
bounding k, min: -0.0139321 max: 13.2464 average: 0.470732
ExecutionTime = 1.39 s  ClockTime = 2 s

Time = 49

smoothSolver:  Solving for Ux, Initial residual = 0.00554438, Final residual = 0.000410982, No Iterations 2
smoothSolver:  Solving for Uy, Initial residual = 0.0467137, Final residual = 0.00348442, No Iterations 2
GAMG:  Solving for p, Initial residual = 0.0338962, Final residual = 0.00231233, No Iterations 2
time step continuity errors : sum local = 0.592, global = -0.0467652, cumulative = -2.49966
smoothSolver:  Solving for omega, Initial residual = 0.000440466, Final residual = 9.62286e-06, No Iterations 2
smoothSolver:  Solving for k, Initial residual = 0.00615268, Final residual = 0.000129812, No Iterations 2
bounding k, min: -0.0208175 max: 15.1963 average: 0.489207
ExecutionTime = 1.41 s  ClockTime = 2 s

Time = 50

smoothSolver:  Solving for Ux, Initial residual = 0.00651245, Final residual = 0.000487457, No Iterations 2
smoothSolver:  Solving for Uy, Initial residual = 0.0473826, Final residual = 0.00352607, No Iterations 2
GAMG:  Solving for p, Initial residual = 0.0357352, Final residual = 0.00242704, No Iterations 2
time step continuity errors : sum local = 0.625318, global = -0.104696, cumulative = -2.60436
smoothSolver:  Solving for omega, Initial residual = 0.000537593, Final residual = 1.1991e-05, No Iterations 2
smoothSolver:  Solving for k, Initial residual = 0.00623072, Final residual = 0.000134562, No Iterations 2
bounding k, min: -0.00934947 max: 16.6637 average: 0.507795
ExecutionTime = 1.43 s  ClockTime = 2 s

Time = 51

smoothSolver:  Solving for Ux, Initial residual = 0.00649531, Final residual = 0.000489936, No Iterations 2
smoothSolver:  Solving for Uy, Initial residual = 0.0472372, Final residual = 0.00350354, No Iterations 2
GAMG:  Solving for p, Initial residual = 0.0355641, Final residual = 0.00283259, No Iterations 2
time step continuity errors : sum local = 0.725919, global = -0.148636, cumulative = -2.75299
smoothSolver:  Solving for omega, Initial residual = 0.000543017, Final residual = 1.2148e-05, No Iterations 2
smoothSolver:  Solving for k, Initial residual = 0.00637287, Final residual = 0.000137585, No Iterations 2
bounding k, min: -0.00432618 max: 17.8407 average: 0.526107
ExecutionTime = 1.45 s  ClockTime = 2 s

Time = 52

smoothSolver:  Solving for Ux, Initial residual = 0.00650164, Final residual = 0.000493301, No Iterations 2
smoothSolver:  Solving for Uy, Initial residual = 0.0470748, Final residual = 0.00346346, No Iterations 2
GAMG:  Solving for p, Initial residual = 0.0388124, Final residual = 0.00302937, No Iterations 2
time step continuity errors : sum local = 0.751643, global = -0.158191, cumulative = -2.91118
smoothSolver:  Solving for omega, Initial residual = 0.000548104, Final residual = 1.21313e-05, No Iterations 2
smoothSolver:  Solving for k, Initial residual = 0.00660657, Final residual = 0.000140691, No Iterations 2
bounding k, min: -0.00610126 max: 18.5326 average: 0.544408
ExecutionTime = 1.47 s  ClockTime = 2 s

Time = 53

smoothSolver:  Solving for Ux, Initial residual = 0.00647783, Final residual = 0.000494966, No Iterations 2
smoothSolver:  Solving for Uy, Initial residual = 0.0468153, Final residual = 0.00341739, No Iterations 2
GAMG:  Solving for p, Initial residual = 0.0412192, Final residual = 0.00304305, No Iterations 2
time step continuity errors : sum local = 0.703907, global = -0.156255, cumulative = -3.06744
smoothSolver:  Solving for omega, Initial residual = 0.000531151, Final residual = 1.19238e-05, No Iterations 2
smoothSolver:  Solving for k, Initial residual = 0.00679597, Final residual = 0.000148184, No Iterations 2
bounding k, min: -0.00438691 max: 18.2774 average: 0.561787
ExecutionTime = 1.49 s  ClockTime = 2 s

Time = 54

smoothSolver:  Solving for Ux, Initial residual = 0.00653061, Final residual = 0.000501671, No Iterations 2
smoothSolver:  Solving for Uy, Initial residual = 0.0466088, Final residual = 0.00338457, No Iterations 2
GAMG:  Solving for p, Initial residual = 0.0446093, Final residual = 0.00307355, No Iterations 2
time step continuity errors : sum local = 0.673918, global = -0.163838, cumulative = -3.23128
smoothSolver:  Solving for omega, Initial residual = 0.000545444, Final residual = 1.22843e-05, No Iterations 2
smoothSolver:  Solving for k, Initial residual = 0.00690979, Final residual = 0.000149367, No Iterations 2
bounding k, min: -0.012083 max: 20.2424 average: 0.579949
ExecutionTime = 1.51 s  ClockTime = 2 s

Time = 55

smoothSolver:  Solving for Ux, Initial residual = 0.00658086, Final residual = 0.000506463, No Iterations 2
smoothSolver:  Solving for Uy, Initial residual = 0.0463378, Final residual = 0.00333994, No Iterations 2
GAMG:  Solving for p, Initial residual = 0.0497777, Final residual = 0.00350879, No Iterations 2
time step continuity errors : sum local = 0.718025, global = -0.161004, cumulative = -3.39228
smoothSolver:  Solving for omega, Initial residual = 0.000547158, Final residual = 1.20186e-05, No Iterations 2
smoothSolver:  Solving for k, Initial residual = 0.00716443, Final residual = 0.000155976, No Iterations 2
bounding k, min: -0.00441493 max: 19.0877 average: 0.597799
ExecutionTime = 1.53 s  ClockTime = 2 s

Time = 56

smoothSolver:  Solving for Ux, Initial residual = 0.00656547, Final residual = 0.000505711, No Iterations 2
smoothSolver:  Solving for Uy, Initial residual = 0.0462286, Final residual = 0.00332233, No Iterations 2
GAMG:  Solving for p, Initial residual = 0.05669, Final residual = 0.00376744, No Iterations 2
time step continuity errors : sum local = 0.728695, global = -0.165334, cumulative = -3.55761
smoothSolver:  Solving for omega, Initial residual = 0.000534841, Final residual = 1.17825e-05, No Iterations 2
smoothSolver:  Solving for k, Initial residual = 0.00731317, Final residual = 0.000159136, No Iterations 2
bounding k, min: -0.00615904 max: 17.4867 average: 0.616751
ExecutionTime = 1.55 s  ClockTime = 2 s

Time = 57

smoothSolver:  Solving for Ux, Initial residual = 0.00505307, Final residual = 0.000386381, No Iterations 2
smoothSolver:  Solving for Uy, Initial residual = 0.044556, Final residual = 0.00318904, No Iterations 2
GAMG:  Solving for p, Initial residual = 0.0563188, Final residual = 0.00426794, No Iterations 2
time step continuity errors : sum local = 0.754494, global = -0.150462, cumulative = -3.70808
smoothSolver:  Solving for omega, Initial residual = 0.000254714, Final residual = 5.65002e-06, No Iterations 2
smoothSolver:  Solving for k, Initial residual = 0.00748266, Final residual = 0.000159879, No Iterations 2
bounding k, min: -0.00446093 max: 17.2267 average: 0.635827
ExecutionTime = 1.57 s  ClockTime = 2 s

Time = 58

smoothSolver:  Solving for Ux, Initial residual = 0.00670062, Final residual = 0.000516255, No Iterations 2
smoothSolver:  Solving for Uy, Initial residual = 0.0461425, Final residual = 0.00329551, No Iterations 2
GAMG:  Solving for p, Initial residual = 0.0641969, Final residual = 0.00465778, No Iterations 2
time step continuity errors : sum local = 0.782823, global = -0.152211, cumulative = -3.86029
smoothSolver:  Solving for omega, Initial residual = 0.000551486, Final residual = 1.19529e-05, No Iterations 2
smoothSolver:  Solving for k, Initial residual = 0.00763289, Final residual = 0.000159792, No Iterations 2
bounding k, min: -0.00612511 max: 16.0916 average: 0.656298
ExecutionTime = 1.59 s  ClockTime = 2 s

Time = 59

smoothSolver:  Solving for Ux, Initial residual = 0.00622966, Final residual = 0.000479421, No Iterations 2
smoothSolver:  Solving for Uy, Initial residual = 0.0456594, Final residual = 0.00324269, No Iterations 2
GAMG:  Solving for p, Initial residual = 0.0666777, Final residual = 0.00490338, No Iterations 2
time step continuity errors : sum local = 0.758359, global = -0.154918, cumulative = -4.01521
smoothSolver:  Solving for omega, Initial residual = 0.000425128, Final residual = 9.34993e-06, No Iterations 2
smoothSolver:  Solving for k, Initial residual = 0.00774012, Final residual = 0.000162272, No Iterations 2
bounding k, min: -0.00498402 max: 18.0005 average: 0.676411
ExecutionTime = 1.61 s  ClockTime = 2 s

Time = 60

smoothSolver:  Solving for Ux, Initial residual = 0.00674221, Final residual = 0.000520266, No Iterations 2
smoothSolver:  Solving for Uy, Initial residual = 0.0460821, Final residual = 0.00326857, No Iterations 2
GAMG:  Solving for p, Initial residual = 0.0686021, Final residual = 0.00497482, No Iterations 2
time step continuity errors : sum local = 0.769312, global = -0.153817, cumulative = -4.16902
smoothSolver:  Solving for omega, Initial residual = 0.000545977, Final residual = 1.19175e-05, No Iterations 2
smoothSolver:  Solving for k, Initial residual = 0.00783392, Final residual = 0.000162402, No Iterations 2
bounding k, min: -0.00611495 max: 22.2479 average: 0.697046
ExecutionTime = 1.63 s  ClockTime = 2 s

Time = 61

smoothSolver:  Solving for Ux, Initial residual = 0.00677629, Final residual = 0.000523518, No Iterations 2
smoothSolver:  Solving for Uy, Initial residual = 0.045887, Final residual = 0.00324363, No Iterations 2
GAMG:  Solving for p, Initial residual = 0.0709417, Final residual = 0.00465512, No Iterations 2
time step continuity errors : sum local = 0.67766, global = -0.19664, cumulative = -4.36566
smoothSolver:  Solving for omega, Initial residual = 0.000550102, Final residual = 1.17458e-05, No Iterations 2
smoothSolver:  Solving for k, Initial residual = 0.00782976, Final residual = 0.000159556, No Iterations 2
bounding k, min: -0.00445634 max: 22.3426 average: 0.716741
ExecutionTime = 1.65 s  ClockTime = 2 s

Time = 62

smoothSolver:  Solving for Ux, Initial residual = 0.00675009, Final residual = 0.000522511, No Iterations 2
smoothSolver:  Solving for Uy, Initial residual = 0.0457309, Final residual = 0.00323503, No Iterations 2
GAMG:  Solving for p, Initial residual = 0.0726158, Final residual = 0.00508042, No Iterations 2
time step continuity errors : sum local = 0.717372, global = -0.180559, cumulative = -4.54622
smoothSolver:  Solving for omega, Initial residual = 0.000552696, Final residual = 1.18145e-05, No Iterations 2
smoothSolver:  Solving for k, Initial residual = 0.00783258, Final residual = 0.000165991, No Iterations 2
bounding k, min: -0.00808005 max: 26.4262 average: 0.736919
ExecutionTime = 1.67 s  ClockTime = 2 s

Time = 63

smoothSolver:  Solving for Ux, Initial residual = 0.00678451, Final residual = 0.000526003, No Iterations 2
smoothSolver:  Solving for Uy, Initial residual = 0.0455284, Final residual = 0.00321123, No Iterations 2
GAMG:  Solving for p, Initial residual = 0.0892442, Final residual = 0.00568286, No Iterations 2
time step continuity errors : sum local = 0.633844, global = -0.172852, cumulative = -4.71907
smoothSolver:  Solving for omega, Initial residual = 0.000560152, Final residual = 1.17689e-05, No Iterations 2
smoothSolver:  Solving for k, Initial residual = 0.00778311, Final residual = 0.000160046, No Iterations 2
bounding k, min: -0.00444087 max: 26.6645 average: 0.756649
ExecutionTime = 1.69 s  ClockTime = 2 s

Time = 64

smoothSolver:  Solving for Ux, Initial residual = 0.00676678, Final residual = 0.000525027, No Iterations 2
smoothSolver:  Solving for Uy, Initial residual = 0.0454661, Final residual = 0.0032074, No Iterations 2
GAMG:  Solving for p, Initial residual = 0.107085, Final residual = 0.00689712, No Iterations 2
time step continuity errors : sum local = 0.656139, global = -0.155838, cumulative = -4.87491
smoothSolver:  Solving for omega, Initial residual = 0.000565554, Final residual = 1.16401e-05, No Iterations 2
smoothSolver:  Solving for k, Initial residual = 0.00777284, Final residual = 0.000155804, No Iterations 2
bounding k, min: -0.00625412 max: 28.7183 average: 0.777207
ExecutionTime = 1.71 s  ClockTime = 2 s

Time = 65

smoothSolver:  Solving for Ux, Initial residual = 0.00677036, Final residual = 0.000525931, No Iterations 2
smoothSolver:  Solving for Uy, Initial residual = 0.0454309, Final residual = 0.00320208, No Iterations 2
GAMG:  Solving for p, Initial residual = 0.120218, Final residual = 0.00774161, No Iterations 2
time step continuity errors : sum local = 0.631988, global = -0.120388, cumulative = -4.9953
smoothSolver:  Solving for omega, Initial residual = 0.000564644, Final residual = 1.15408e-05, No Iterations 2
smoothSolver:  Solving for k, Initial residual = 0.00776491, Final residual = 0.00015852, No Iterations 2
bounding k, min: -0.00445654 max: 30.1476 average: 0.798404
ExecutionTime = 1.73 s  ClockTime = 2 s

Time = 66

smoothSolver:  Solving for Ux, Initial residual = 0.00631881, Final residual = 0.000491484, No Iterations 2
smoothSolver:  Solving for Uy, Initial residual = 0.0452373, Final residual = 0.00319152, No Iterations 2
GAMG:  Solving for p, Initial residual = 0.131121, Final residual = 0.00868444, No Iterations 2
time step continuity errors : sum local = 0.639442, global = -0.0847024, cumulative = -5.08
smoothSolver:  Solving for omega, Initial residual = 0.000467351, Final residual = 9.60315e-06, No Iterations 2
smoothSolver:  Solving for k, Initial residual = 0.0079257, Final residual = 0.000157977, No Iterations 2
bounding k, min: -0.00627834 max: 32.1206 average: 0.820585
ExecutionTime = 1.75 s  ClockTime = 2 s

Time = 67

smoothSolver:  Solving for Ux, Initial residual = 0.00660773, Final residual = 0.000515355, No Iterations 2
smoothSolver:  Solving for Uy, Initial residual = 0.0454802, Final residual = 0.00321163, No Iterations 2
GAMG:  Solving for p, Initial residual = 0.144083, Final residual = 0.00849781, No Iterations 2
time step continuity errors : sum local = 0.584538, global = -0.0634231, cumulative = -5.14342
smoothSolver:  Solving for omega, Initial residual = 0.0005368, Final residual = 1.0929e-05, No Iterations 2
smoothSolver:  Solving for k, Initial residual = 0.00798933, Final residual = 0.000158451, No Iterations 2
bounding k, min: -0.0044583 max: 33.4806 average: 0.843401
ExecutionTime = 1.77 s  ClockTime = 2 s

Time = 68

smoothSolver:  Solving for Ux, Initial residual = 0.00671904, Final residual = 0.000523932, No Iterations 2
smoothSolver:  Solving for Uy, Initial residual = 0.0455078, Final residual = 0.00321997, No Iterations 2
GAMG:  Solving for p, Initial residual = 0.150908, Final residual = 0.00821195, No Iterations 2
time step continuity errors : sum local = 0.559461, global = -0.0134946, cumulative = -5.15692
smoothSolver:  Solving for omega, Initial residual = 0.000572051, Final residual = 1.14578e-05, No Iterations 2
smoothSolver:  Solving for k, Initial residual = 0.00814265, Final residual = 0.000161169, No Iterations 2
bounding k, min: -0.00633981 max: 35.7465 average: 0.866771
ExecutionTime = 1.78 s  ClockTime = 2 s

Time = 69

smoothSolver:  Solving for Ux, Initial residual = 0.00677193, Final residual = 0.000527277, No Iterations 2
smoothSolver:  Solving for Uy, Initial residual = 0.0454101, Final residual = 0.00320921, No Iterations 2
GAMG:  Solving for p, Initial residual = 0.15398, Final residual = 0.00840562, No Iterations 2
time step continuity errors : sum local = 0.51669, global = 0.0648617, cumulative = -5.09206
smoothSolver:  Solving for omega, Initial residual = 0.000587796, Final residual = 1.20107e-05, No Iterations 2
smoothSolver:  Solving for k, Initial residual = 0.00824116, Final residual = 0.000161703, No Iterations 2
bounding k, min: -0.00446431 max: 37.4793 average: 0.890724
ExecutionTime = 1.8 s  ClockTime = 2 s

Time = 70

smoothSolver:  Solving for Ux, Initial residual = 0.00674125, Final residual = 0.000523911, No Iterations 2
smoothSolver:  Solving for Uy, Initial residual = 0.0452707, Final residual = 0.00319139, No Iterations 2
GAMG:  Solving for p, Initial residual = 0.153996, Final residual = 0.00815796, No Iterations 2
time step continuity errors : sum local = 0.493313, global = 0.152466, cumulative = -4.93959
smoothSolver:  Solving for omega, Initial residual = 0.000594874, Final residual = 1.18566e-05, No Iterations 2
smoothSolver:  Solving for k, Initial residual = 0.0084118, Final residual = 0.000162401, No Iterations 2
bounding k, min: -0.00640285 max: 38.8993 average: 0.914434
ExecutionTime = 1.82 s  ClockTime = 2 s

Time = 71

smoothSolver:  Solving for Ux, Initial residual = 0.00671832, Final residual = 0.000521668, No Iterations 2
smoothSolver:  Solving for Uy, Initial residual = 0.0451409, Final residual = 0.00318139, No Iterations 2
GAMG:  Solving for p, Initial residual = 0.141076, Final residual = 0.0076939, No Iterations 2
time step continuity errors : sum local = 0.47551, global = 0.194588, cumulative = -4.745
smoothSolver:  Solving for omega, Initial residual = 0.000602551, Final residual = 1.18926e-05, No Iterations 2
smoothSolver:  Solving for k, Initial residual = 0.00855853, Final residual = 0.000166299, No Iterations 2
bounding k, min: -0.00447018 max: 38.9767 average: 0.938767
ExecutionTime = 1.84 s  ClockTime = 2 s

Time = 72

smoothSolver:  Solving for Ux, Initial residual = 0.00665765, Final residual = 0.000516573, No Iterations 2
smoothSolver:  Solving for Uy, Initial residual = 0.0450536, Final residual = 0.00316971, No Iterations 2
GAMG:  Solving for p, Initial residual = 0.119078, Final residual = 0.00786562, No Iterations 2
time step continuity errors : sum local = 0.615633, global = 0.14211, cumulative = -4.60289
smoothSolver:  Solving for omega, Initial residual = 0.000608537, Final residual = 1.20016e-05, No Iterations 2
smoothSolver:  Solving for k, Initial residual = 0.00873192, Final residual = 0.000170824, No Iterations 2
bounding k, min: -0.00645279 max: 40.9031 average: 0.963083
ExecutionTime = 1.86 s  ClockTime = 2 s

Time = 73

smoothSolver:  Solving for Ux, Initial residual = 0.00664261, Final residual = 0.000514531, No Iterations 2
smoothSolver:  Solving for Uy, Initial residual = 0.0450355, Final residual = 0.00317038, No Iterations 2
GAMG:  Solving for p, Initial residual = 0.0802422, Final residual = 0.00409686, No Iterations 2
time step continuity errors : sum local = 0.451784, global = 0.177188, cumulative = -4.4257
smoothSolver:  Solving for omega, Initial residual = 0.0006206, Final residual = 1.20737e-05, No Iterations 2
smoothSolver:  Solving for k, Initial residual = 0.00889812, Final residual = 0.000171005, No Iterations 2
bounding k, min: -0.00447437 max: 42.7992 average: 0.987782
ExecutionTime = 1.88 s  ClockTime = 2 s

Time = 74

smoothSolver:  Solving for Ux, Initial residual = 0.00653522, Final residual = 0.000506051, No Iterations 2
smoothSolver:  Solving for Uy, Initial residual = 0.044999, Final residual = 0.00316145, No Iterations 2
GAMG:  Solving for p, Initial residual = 0.073358, Final residual = 0.00369677, No Iterations 2
time step continuity errors : sum local = 0.49324, global = 0.181525, cumulative = -4.24418
smoothSolver:  Solving for omega, Initial residual = 0.000617009, Final residual = 1.21823e-05, No Iterations 2
smoothSolver:  Solving for k, Initial residual = 0.00919286, Final residual = 0.000177554, No Iterations 2
bounding k, min: -0.00649542 max: 45.9431 average: 1.01325
ExecutionTime = 1.9 s  ClockTime = 2 s

Time = 75

smoothSolver:  Solving for Ux, Initial residual = 0.00651955, Final residual = 0.000503956, No Iterations 2
smoothSolver:  Solving for Uy, Initial residual = 0.0449932, Final residual = 0.00315832, No Iterations 2
GAMG:  Solving for p, Initial residual = 0.0598945, Final residual = 0.00344991, No Iterations 2
time step continuity errors : sum local = 0.498747, global = 0.155971, cumulative = -4.08821
smoothSolver:  Solving for omega, Initial residual = 0.000624964, Final residual = 1.20015e-05, No Iterations 2
smoothSolver:  Solving for k, Initial residual = 0.00946215, Final residual = 0.000181417, No Iterations 2
bounding k, min: -0.00447738 max: 47.1874 average: 1.03906
ExecutionTime = 1.92 s  ClockTime = 2 s

Time = 76

smoothSolver:  Solving for Ux, Initial residual = 0.0064557, Final residual = 0.000497261, No Iterations 2
smoothSolver:  Solving for Uy, Initial residual = 0.0449818, Final residual = 0.00314681, No Iterations 2
GAMG:  Solving for p, Initial residual = 0.0522646, Final residual = 0.00272294, No Iterations 2
time step continuity errors : sum local = 0.469005, global = 0.150004, cumulative = -3.9382
smoothSolver:  Solving for omega, Initial residual = 0.000634247, Final residual = 1.20387e-05, No Iterations 2
smoothSolver:  Solving for k, Initial residual = 0.00972337, Final residual = 0.000187763, No Iterations 2
bounding k, min: -0.0065401 max: 47.6355 average: 1.06591
ExecutionTime = 1.93 s  ClockTime = 2 s

Time = 77

smoothSolver:  Solving for Ux, Initial residual = 0.00641715, Final residual = 0.000493492, No Iterations 2
smoothSolver:  Solving for Uy, Initial residual = 0.0449826, Final residual = 0.00314186, No Iterations 2
GAMG:  Solving for p, Initial residual = 0.0415225, Final residual = 0.0022303, No Iterations 2
time step continuity errors : sum local = 0.426389, global = 0.143707, cumulative = -3.7945
smoothSolver:  Solving for omega, Initial residual = 0.000646544, Final residual = 1.2454e-05, No Iterations 2
smoothSolver:  Solving for k, Initial residual = 0.00996627, Final residual = 0.000190233, No Iterations 2
bounding k, min: -0.00447916 max: 48.1098 average: 1.09471
ExecutionTime = 1.96 s  ClockTime = 2 s

Time = 78

smoothSolver:  Solving for Ux, Initial residual = 0.00634669, Final residual = 0.000486234, No Iterations 2
smoothSolver:  Solving for Uy, Initial residual = 0.0448841, Final residual = 0.00312268, No Iterations 2
GAMG:  Solving for p, Initial residual = 0.0383862, Final residual = 0.00195094, No Iterations 2
time step continuity errors : sum local = 0.429613, global = 0.139329, cumulative = -3.65517
smoothSolver:  Solving for omega, Initial residual = 0.000660164, Final residual = 1.22169e-05, No Iterations 2
smoothSolver:  Solving for k, Initial residual = 0.010273, Final residual = 0.000198943, No Iterations 2
bounding k, min: -0.0065735 max: 51.349 average: 1.12413
ExecutionTime = 1.98 s  ClockTime = 2 s

Time = 79

smoothSolver:  Solving for Ux, Initial residual = 0.00631106, Final residual = 0.00048172, No Iterations 2
smoothSolver:  Solving for Uy, Initial residual = 0.044854, Final residual = 0.00312061, No Iterations 2
GAMG:  Solving for p, Initial residual = 0.0385377, Final residual = 0.00181346, No Iterations 2
time step continuity errors : sum local = 0.45315, global = 0.12668, cumulative = -3.52849
smoothSolver:  Solving for omega, Initial residual = 0.000661364, Final residual = 1.27172e-05, No Iterations 2
smoothSolver:  Solving for k, Initial residual = 0.0106783, Final residual = 0.000201433, No Iterations 2
bounding k, min: -0.00448144 max: 53.9308 average: 1.15621
ExecutionTime = 1.99 s  ClockTime = 2 s

Time = 80

smoothSolver:  Solving for Ux, Initial residual = 0.00626663, Final residual = 0.00047565, No Iterations 2
smoothSolver:  Solving for Uy, Initial residual = 0.0447372, Final residual = 0.00309737, No Iterations 2
GAMG:  Solving for p, Initial residual = 0.0363151, Final residual = 0.00185549, No Iterations 2
time step continuity errors : sum local = 0.470986, global = 0.113576, cumulative = -3.41491
smoothSolver:  Solving for omega, Initial residual = 0.000668043, Final residual = 1.241e-05, No Iterations 2
smoothSolver:  Solving for k, Initial residual = 0.0110615, Final residual = 0.000209868, No Iterations 2
bounding k, min: -0.00671497 max: 54.8599 average: 1.18678
ExecutionTime = 2.01 s  ClockTime = 2 s

Time = 81

smoothSolver:  Solving for Ux, Initial residual = 0.00622297, Final residual = 0.000470397, No Iterations 2
smoothSolver:  Solving for Uy, Initial residual = 0.0447089, Final residual = 0.00309607, No Iterations 2
GAMG:  Solving for p, Initial residual = 0.0317482, Final residual = 0.00174126, No Iterations 2
time step continuity errors : sum local = 0.466617, global = 0.105532, cumulative = -3.30938
smoothSolver:  Solving for omega, Initial residual = 0.00067951, Final residual = 1.27509e-05, No Iterations 2
smoothSolver:  Solving for k, Initial residual = 0.0114103, Final residual = 0.000211633, No Iterations 2
bounding k, min: -0.00448192 max: 55.8459 average: 1.21991
ExecutionTime = 2.03 s  ClockTime = 2 s

Time = 82

smoothSolver:  Solving for Ux, Initial residual = 0.00484047, Final residual = 0.000362163, No Iterations 2
smoothSolver:  Solving for Uy, Initial residual = 0.0435085, Final residual = 0.00299243, No Iterations 2
GAMG:  Solving for p, Initial residual = 0.0300638, Final residual = 0.00165922, No Iterations 2
time step continuity errors : sum local = 0.475397, global = 0.10317, cumulative = -3.20621
smoothSolver:  Solving for omega, Initial residual = 0.000379619, Final residual = 6.92683e-06, No Iterations 2
smoothSolver:  Solving for k, Initial residual = 0.0117406, Final residual = 0.000215513, No Iterations 2
bounding k, min: -0.00662912 max: 54.894 average: 1.25337
ExecutionTime = 2.05 s  ClockTime = 2 s

Time = 83

smoothSolver:  Solving for Ux, Initial residual = 0.00615746, Final residual = 0.000460497, No Iterations 2
smoothSolver:  Solving for Uy, Initial residual = 0.0446383, Final residual = 0.00305983, No Iterations 2
GAMG:  Solving for p, Initial residual = 0.0281742, Final residual = 0.00154469, No Iterations 2
time step continuity errors : sum local = 0.448501, global = 0.106322, cumulative = -3.09989
smoothSolver:  Solving for omega, Initial residual = 0.000711678, Final residual = 1.28797e-05, No Iterations 2
smoothSolver:  Solving for k, Initial residual = 0.0120453, Final residual = 0.000223379, No Iterations 2
bounding k, min: -0.00443953 max: 56.9707 average: 1.28797
ExecutionTime = 2.07 s  ClockTime = 3 s

Time = 84

smoothSolver:  Solving for Ux, Initial residual = 0.00611283, Final residual = 0.00045642, No Iterations 2
smoothSolver:  Solving for Uy, Initial residual = 0.0445971, Final residual = 0.00305433, No Iterations 2
GAMG:  Solving for p, Initial residual = 0.0292133, Final residual = 0.00149192, No Iterations 2
time step continuity errors : sum local = 0.447438, global = 0.112888, cumulative = -2.987
smoothSolver:  Solving for omega, Initial residual = 0.000720144, Final residual = 1.29237e-05, No Iterations 2
smoothSolver:  Solving for k, Initial residual = 0.0124293, Final residual = 0.000229637, No Iterations 2
bounding k, min: -0.00674123 max: 59.7667 average: 1.32259
ExecutionTime = 2.09 s  ClockTime = 3 s

Time = 85

smoothSolver:  Solving for Ux, Initial residual = 0.00609382, Final residual = 0.000453194, No Iterations 2
smoothSolver:  Solving for Uy, Initial residual = 0.0446176, Final residual = 0.00304545, No Iterations 2
GAMG:  Solving for p, Initial residual = 0.0289661, Final residual = 0.00149798, No Iterations 2
time step continuity errors : sum local = 0.448365, global = 0.122785, cumulative = -2.86421
smoothSolver:  Solving for omega, Initial residual = 0.00072489, Final residual = 1.29502e-05, No Iterations 2
smoothSolver:  Solving for k, Initial residual = 0.0128309, Final residual = 0.000235364, No Iterations 2
bounding k, min: -0.00659188 max: 61.971 average: 1.35967
ExecutionTime = 2.11 s  ClockTime = 3 s

Time = 86

smoothSolver:  Solving for Ux, Initial residual = 0.0060692, Final residual = 0.000449392, No Iterations 2
smoothSolver:  Solving for Uy, Initial residual = 0.0445732, Final residual = 0.00303857, No Iterations 2
GAMG:  Solving for p, Initial residual = 0.0280868, Final residual = 0.00149449, No Iterations 2
time step continuity errors : sum local = 0.452162, global = 0.134195, cumulative = -2.73002
smoothSolver:  Solving for omega, Initial residual = 0.000736832, Final residual = 1.32132e-05, No Iterations 2
smoothSolver:  Solving for k, Initial residual = 0.01324, Final residual = 0.0002436, No Iterations 2
bounding k, min: -0.00666319 max: 62.5459 average: 1.39592
ExecutionTime = 2.13 s  ClockTime = 3 s

Time = 87

smoothSolver:  Solving for Ux, Initial residual = 0.00604757, Final residual = 0.000446106, No Iterations 2
smoothSolver:  Solving for Uy, Initial residual = 0.0446634, Final residual = 0.00302463, No Iterations 2
GAMG:  Solving for p, Initial residual = 0.0278438, Final residual = 0.00158319, No Iterations 2
time step continuity errors : sum local = 0.481196, global = 0.146057, cumulative = -2.58396
smoothSolver:  Solving for omega, Initial residual = 0.000752675, Final residual = 1.36091e-05, No Iterations 2
smoothSolver:  Solving for k, Initial residual = 0.0137098, Final residual = 0.000253432, No Iterations 2
bounding k, min: -0.0044401 max: 63.5865 average: 1.435
ExecutionTime = 2.15 s  ClockTime = 3 s

Time = 88

smoothSolver:  Solving for Ux, Initial residual = 0.00603693, Final residual = 0.000443574, No Iterations 2
smoothSolver:  Solving for Uy, Initial residual = 0.044671, Final residual = 0.00303084, No Iterations 2
GAMG:  Solving for p, Initial residual = 0.0289296, Final residual = 0.00164095, No Iterations 2
time step continuity errors : sum local = 0.511422, global = 0.158253, cumulative = -2.42571
smoothSolver:  Solving for omega, Initial residual = 0.000778261, Final residual = 1.33518e-05, No Iterations 2
smoothSolver:  Solving for k, Initial residual = 0.0140146, Final residual = 0.000257928, No Iterations 2
bounding k, min: -0.00675979 max: 63.7826 average: 1.47397
ExecutionTime = 2.17 s  ClockTime = 3 s

Time = 89

smoothSolver:  Solving for Ux, Initial residual = 0.00604009, Final residual = 0.000442037, No Iterations 2
smoothSolver:  Solving for Uy, Initial residual = 0.0447251, Final residual = 0.00301733, No Iterations 2
GAMG:  Solving for p, Initial residual = 0.028527, Final residual = 0.00174897, No Iterations 2
time step continuity errors : sum local = 0.564526, global = 0.167629, cumulative = -2.25808
smoothSolver:  Solving for omega, Initial residual = 0.000790423, Final residual = 1.38126e-05, No Iterations 2
smoothSolver:  Solving for k, Initial residual = 0.0143515, Final residual = 0.00026668, No Iterations 2
bounding k, min: -0.00445411 max: 65.0623 average: 1.51621
ExecutionTime = 2.19 s  ClockTime = 3 s

Time = 90

smoothSolver:  Solving for Ux, Initial residual = 0.00605171, Final residual = 0.000441925, No Iterations 2
smoothSolver:  Solving for Uy, Initial residual = 0.0447846, Final residual = 0.00304056, No Iterations 2
GAMG:  Solving for p, Initial residual = 0.0306846, Final residual = 0.00177377, No Iterations 2
time step continuity errors : sum local = 0.587798, global = 0.177408, cumulative = -2.08067
smoothSolver:  Solving for omega, Initial residual = 0.00080525, Final residual = 1.39649e-05, No Iterations 2
smoothSolver:  Solving for k, Initial residual = 0.0147118, Final residual = 0.000270526, No Iterations 2
bounding k, min: -0.00668616 max: 65.9167 average: 1.55668
ExecutionTime = 2.21 s  ClockTime = 3 s

Time = 91

smoothSolver:  Solving for Ux, Initial residual = 0.00607001, Final residual = 0.000441849, No Iterations 2
smoothSolver:  Solving for Uy, Initial residual = 0.0447972, Final residual = 0.00302935, No Iterations 2
GAMG:  Solving for p, Initial residual = 0.0291731, Final residual = 0.00198992, No Iterations 2
time step continuity errors : sum local = 0.684196, global = 0.183548, cumulative = -1.89713
smoothSolver:  Solving for omega, Initial residual = 0.000819385, Final residual = 1.39751e-05, No Iterations 2
smoothSolver:  Solving for k, Initial residual = 0.0149161, Final residual = 0.00027607, No Iterations 2
bounding k, min: -0.00444082 max: 67.2944 average: 1.59979
ExecutionTime = 2.23 s  ClockTime = 3 s

Time = 92

smoothSolver:  Solving for Ux, Initial residual = 0.00582515, Final residual = 0.000421901, No Iterations 2
smoothSolver:  Solving for Uy, Initial residual = 0.0445616, Final residual = 0.00301135, No Iterations 2
GAMG:  Solving for p, Initial residual = 0.0270012, Final residual = 0.00200711, No Iterations 2
time step continuity errors : sum local = 0.716305, global = 0.188336, cumulative = -1.70879
smoothSolver:  Solving for omega, Initial residual = 0.000730102, Final residual = 1.24623e-05, No Iterations 2
smoothSolver:  Solving for k, Initial residual = 0.0152666, Final residual = 0.000285874, No Iterations 2
bounding k, min: -0.00677139 max: 67.6271 average: 1.64194
ExecutionTime = 2.25 s  ClockTime = 3 s

Time = 93

smoothSolver:  Solving for Ux, Initial residual = 0.00503023, Final residual = 0.00036216, No Iterations 2
smoothSolver:  Solving for Uy, Initial residual = 0.0436544, Final residual = 0.00292389, No Iterations 2
GAMG:  Solving for p, Initial residual = 0.0266519, Final residual = 0.00218363, No Iterations 2
time step continuity errors : sum local = 0.810225, global = 0.189009, cumulative = -1.51978
smoothSolver:  Solving for omega, Initial residual = 0.000682334, Final residual = 1.15509e-05, No Iterations 2
smoothSolver:  Solving for k, Initial residual = 0.0155737, Final residual = 0.000298034, No Iterations 2
bounding k, min: -0.00445457 max: 70.0477 average: 1.686
ExecutionTime = 2.27 s  ClockTime = 3 s

Time = 94

smoothSolver:  Solving for Ux, Initial residual = 0.00623934, Final residual = 0.000449783, No Iterations 2
smoothSolver:  Solving for Uy, Initial residual = 0.0443161, Final residual = 0.00295772, No Iterations 2
GAMG:  Solving for p, Initial residual = 0.0258664, Final residual = 0.00209252, No Iterations 2
time step continuity errors : sum local = 0.819235, global = 0.19043, cumulative = -1.32935
smoothSolver:  Solving for omega, Initial residual = 0.000870999, Final residual = 1.46576e-05, No Iterations 2
smoothSolver:  Solving for k, Initial residual = 0.015938, Final residual = 0.000295699, No Iterations 2
bounding k, min: -0.00670058 max: 70.0345 average: 1.72965
ExecutionTime = 2.29 s  ClockTime = 3 s

Time = 95

smoothSolver:  Solving for Ux, Initial residual = 0.00602559, Final residual = 0.000433513, No Iterations 2
smoothSolver:  Solving for Uy, Initial residual = 0.0435405, Final residual = 0.00287962, No Iterations 2
GAMG:  Solving for p, Initial residual = 0.026994, Final residual = 0.00225621, No Iterations 2
time step continuity errors : sum local = 0.913644, global = 0.191023, cumulative = -1.13833
smoothSolver:  Solving for omega, Initial residual = 0.000765988, Final residual = 1.29289e-05, No Iterations 2
smoothSolver:  Solving for k, Initial residual = 0.0161246, Final residual = 0.000315871, No Iterations 2
bounding k, min: -0.00444205 max: 71.5025 average: 1.77497
ExecutionTime = 2.3 s  ClockTime = 3 s

Time = 96

smoothSolver:  Solving for Ux, Initial residual = 0.00642766, Final residual = 0.000460949, No Iterations 2
smoothSolver:  Solving for Uy, Initial residual = 0.0431611, Final residual = 0.00281718, No Iterations 2
GAMG:  Solving for p, Initial residual = 0.0261728, Final residual = 0.00226527, No Iterations 2
time step continuity errors : sum local = 0.929806, global = 0.193515, cumulative = -0.944813
smoothSolver:  Solving for omega, Initial residual = 0.000900341, Final residual = 1.48603e-05, No Iterations 2
smoothSolver:  Solving for k, Initial residual = 0.0165346, Final residual = 0.000313134, No Iterations 2
bounding k, min: -0.0067787 max: 71.6576 average: 1.82028
ExecutionTime = 2.32 s  ClockTime = 3 s

Time = 97

smoothSolver:  Solving for Ux, Initial residual = 0.00652396, Final residual = 0.000467264, No Iterations 2
smoothSolver:  Solving for Uy, Initial residual = 0.042388, Final residual = 0.00273873, No Iterations 2
GAMG:  Solving for p, Initial residual = 0.0266508, Final residual = 0.00250637, No Iterations 2
time step continuity errors : sum local = 1.02149, global = 0.194653, cumulative = -0.750161
smoothSolver:  Solving for omega, Initial residual = 0.000917966, Final residual = 1.52989e-05, No Iterations 2
smoothSolver:  Solving for k, Initial residual = 0.0167197, Final residual = 0.000313703, No Iterations 2
bounding k, min: -0.00445552 max: 72.2376 average: 1.86991
ExecutionTime = 2.34 s  ClockTime = 3 s

Time = 98

smoothSolver:  Solving for Ux, Initial residual = 0.00517982, Final residual = 0.000370322, No Iterations 2
smoothSolver:  Solving for Uy, Initial residual = 0.0404955, Final residual = 0.00259179, No Iterations 2
GAMG:  Solving for p, Initial residual = 0.0271326, Final residual = 0.00237515, No Iterations 2
time step continuity errors : sum local = 0.962385, global = 0.196639, cumulative = -0.553522
smoothSolver:  Solving for omega, Initial residual = 0.000526359, Final residual = 8.70211e-06, No Iterations 2
smoothSolver:  Solving for k, Initial residual = 0.0170795, Final residual = 0.000329872, No Iterations 2
bounding k, min: -0.00671047 max: 71.8666 average: 1.91788
ExecutionTime = 2.36 s  ClockTime = 3 s

Time = 99

smoothSolver:  Solving for Ux, Initial residual = 0.00667, Final residual = 0.000480103, No Iterations 2
smoothSolver:  Solving for Uy, Initial residual = 0.0410471, Final residual = 0.00260054, No Iterations 2
GAMG:  Solving for p, Initial residual = 0.0296401, Final residual = 0.00250231, No Iterations 2
time step continuity errors : sum local = 0.997802, global = 0.196325, cumulative = -0.357197
smoothSolver:  Solving for omega, Initial residual = 0.000945573, Final residual = 1.57999e-05, No Iterations 2
smoothSolver:  Solving for k, Initial residual = 0.0173464, Final residual = 0.000336356, No Iterations 2
bounding k, min: -0.00444327 max: 73.1872 average: 1.97007
ExecutionTime = 2.38 s  ClockTime = 3 s

Time = 100

smoothSolver:  Solving for Ux, Initial residual = 0.00675673, Final residual = 0.00048591, No Iterations 2
smoothSolver:  Solving for Uy, Initial residual = 0.040416, Final residual = 0.00254925, No Iterations 2
GAMG:  Solving for p, Initial residual = 0.0295202, Final residual = 0.00244623, No Iterations 2
time step continuity errors : sum local = 0.963396, global = 0.196503, cumulative = -0.160694
smoothSolver:  Solving for omega, Initial residual = 0.000964692, Final residual = 1.57896e-05, No Iterations 2
smoothSolver:  Solving for k, Initial residual = 0.0175539, Final residual = 0.000341551, No Iterations 2
bounding k, min: -0.00678361 max: 73.2919 average: 2.02314
ExecutionTime = 2.44 s  ClockTime = 3 s

    functionObjects::turbulenceFields stressComponents writing field: turbulenceProperties:devReff

    functionObjects::pressure pressureCoefficient writing field: cp
writeCellCentres writeCellCentres write:
    writing cell-centres field C to 100
    Writing the x component field of the cell-centres Cx to 100
    Writing the y component field of the cell-centres Cy to 100
    Writing the z component field of the cell-centres Cz to 100
wallShearStress wallShearStress write:
    writing field wallShearStress
    min/max(lowerWallStartup) = (-3.21009 -0.00324573 0), (-1.25403 0.0975476 0)
    min/max(upperWallStartup) = (-14.1409 -0.00123369 0), (-2.9871 0.208796 0)
    min/max(upperWall) = (-8.14266 -0.00909415 0), (2.75193 0.0458728 0)
    min/max(verticalWall) = (-0.156167 -0.580215 0), (0.125101 0.16862 0)
    min/max(lowerWall) = (-6.35137 -0.082758 0), (4.57464 0.113292 0)
yPlus yPlus write:
    writing field yPlus
    patch lowerWallStartup y+ : min = 1.12524, max = 1.80032, average = 1.40726
    patch upperWallStartup y+ : min = 1.73713, max = 3.77964, average = 2.00484
    patch upperWall y+ : min = 0.17421, max = 2.86807, average = 1.41672
    patch verticalWall y+ : min = 0.175423, max = 16.6446, average = 8.91254
    patch lowerWall y+ : min = 0.163933, max = 4.34421, average = 2.20911
Time = 101

smoothSolver:  Solving for Ux, Initial residual = 0.00680761, Final residual = 0.000487228, No Iterations 2
smoothSolver:  Solving for Uy, Initial residual = 0.0398915, Final residual = 0.00248996, No Iterations 2
GAMG:  Solving for p, Initial residual = 0.029826, Final residual = 0.00263745, No Iterations 2
time step continuity errors : sum local = 1.00204, global = 0.194466, cumulative = 0.0337717
smoothSolver:  Solving for omega, Initial residual = 0.000982391, Final residual = 1.63508e-05, No Iterations 2
smoothSolver:  Solving for k, Initial residual = 0.0179071, Final residual = 0.000358867, No Iterations 2
bounding k, min: -0.00445622 max: 73.9272 average: 2.07677
ExecutionTime = 2.54 s  ClockTime = 3 s

Time = 102

smoothSolver:  Solving for Ux, Initial residual = 0.0068524, Final residual = 0.000489412, No Iterations 2
smoothSolver:  Solving for Uy, Initial residual = 0.0394192, Final residual = 0.0024588, No Iterations 2
GAMG:  Solving for p, Initial residual = 0.0309851, Final residual = 0.00251542, No Iterations 2
time step continuity errors : sum local = 0.943174, global = 0.194096, cumulative = 0.227868
smoothSolver:  Solving for omega, Initial residual = 0.00100247, Final residual = 1.62162e-05, No Iterations 2
smoothSolver:  Solving for k, Initial residual = 0.0179382, Final residual = 0.000368924, No Iterations 2
bounding k, min: -0.00671729 max: 73.613 average: 2.13165
ExecutionTime = 2.56 s  ClockTime = 3 s

Time = 103

smoothSolver:  Solving for Ux, Initial residual = 0.0068823, Final residual = 0.000489659, No Iterations 2
smoothSolver:  Solving for Uy, Initial residual = 0.0390466, Final residual = 0.00243077, No Iterations 2
GAMG:  Solving for p, Initial residual = 0.0328195, Final residual = 0.00264041, No Iterations 2
time step continuity errors : sum local = 0.96053, global = 0.196509, cumulative = 0.424377
smoothSolver:  Solving for omega, Initial residual = 0.00101184, Final residual = 1.69734e-05, No Iterations 2
smoothSolver:  Solving for k, Initial residual = 0.0181587, Final residual = 0.000370666, No Iterations 2
bounding k, min: -0.00566929 max: 74.8643 average: 2.18996
ExecutionTime = 2.59 s  ClockTime = 3 s

Time = 104

smoothSolver:  Solving for Ux, Initial residual = 0.00693202, Final residual = 0.000491259, No Iterations 2
smoothSolver:  Solving for Uy, Initial residual = 0.0387071, Final residual = 0.00240999, No Iterations 2
GAMG:  Solving for p, Initial residual = 0.0389438, Final residual = 0.00257165, No Iterations 2
time step continuity errors : sum local = 0.94914, global = 0.197917, cumulative = 0.622294
smoothSolver:  Solving for omega, Initial residual = 0.00102266, Final residual = 1.69576e-05, No Iterations 2
smoothSolver:  Solving for k, Initial residual = 0.0183786, Final residual = 0.000393516, No Iterations 2
bounding k, min: -0.00678797 max: 77.6939 average: 2.24431
ExecutionTime = 2.6 s  ClockTime = 3 s

Time = 105

[...]
smoothSolver:  Solving for Uy, Initial residual = 6.81532e-06, Final residual = 3.53789e-07, No Iterations 2
GAMG:  Solving for p, Initial residual = 3.22623e-05, Final residual = 4.85605e-07, No Iterations 1
time step continuity errors : sum local = 0.000104853, global = -1.39935e-05, cumulative = -6.83191
smoothSolver:  Solving for omega, Initial residual = 1.23189e-06, Final residual = 1.08741e-07, No Iterations 1
smoothSolver:  Solving for k, Initial residual = 4.07337e-06, Final residual = 3.11055e-07, No Iterations 2
bounding k, min: -0.006251 max: 49.902 average: 7.33812
ExecutionTime = 34.22 s  ClockTime = 35 s

Time = 1477

smoothSolver:  Solving for Ux, Initial residual = 4.25066e-07, Final residual = 3.54333e-08, No Iterations 4
smoothSolver:  Solving for Uy, Initial residual = 8.14814e-06, Final residual = 7.87136e-07, No Iterations 1
GAMG:  Solving for p, Initial residual = 3.77524e-05, Final residual = 4.839e-07, No Iterations 1
time step continuity errors : sum local = 0.000104502, global = -1.50871e-05, cumulative = -6.83193
smoothSolver:  Solving for omega, Initial residual = 1.20719e-06, Final residual = 1.0884e-07, No Iterations 1
smoothSolver:  Solving for k, Initial residual = 4.10873e-06, Final residual = 3.05348e-07, No Iterations 2
bounding k, min: -0.000227899 max: 49.902 average: 7.33813
ExecutionTime = 34.24 s  ClockTime = 35 s

Time = 1478

smoothSolver:  Solving for Ux, Initial residual = 3.96852e-07, Final residual = 3.53874e-08, No Iterations 4
smoothSolver:  Solving for Uy, Initial residual = 2.98847e-06, Final residual = 2.2143e-07, No Iterations 3
GAMG:  Solving for p, Initial residual = 3.28504e-05, Final residual = 4.94993e-07, No Iterations 1
time step continuity errors : sum local = 0.00010688, global = -1.51759e-05, cumulative = -6.83194
smoothSolver:  Solving for omega, Initial residual = 1.19675e-06, Final residual = 1.06423e-07, No Iterations 1
smoothSolver:  Solving for k, Initial residual = 4.0441e-06, Final residual = 3.07383e-07, No Iterations 2
bounding k, min: -0.00632409 max: 49.902 average: 7.33813
ExecutionTime = 34.26 s  ClockTime = 35 s

Time = 1479

smoothSolver:  Solving for Ux, Initial residual = 5.18295e-07, Final residual = 3.49735e-08, No Iterations 4
smoothSolver:  Solving for Uy, Initial residual = 7.29696e-05, Final residual = 7.87267e-07, No Iterations 1
GAMG:  Solving for p, Initial residual = 3.72273e-05, Final residual = 4.67931e-07, No Iterations 1
time step continuity errors : sum local = 0.000101053, global = -1.52241e-05, cumulative = -6.83196
smoothSolver:  Solving for omega, Initial residual = 1.19964e-06, Final residual = 1.07106e-07, No Iterations 1
smoothSolver:  Solving for k, Initial residual = 4.08483e-06, Final residual = 3.02551e-07, No Iterations 2
bounding k, min: -0.00041764 max: 49.9021 average: 7.33815
ExecutionTime = 34.28 s  ClockTime = 35 s

Time = 1480

smoothSolver:  Solving for Ux, Initial residual = 3.98126e-07, Final residual = 3.51625e-08, No Iterations 4
smoothSolver:  Solving for Uy, Initial residual = 4.12647e-06, Final residual = 3.8585e-07, No Iterations 2
GAMG:  Solving for p, Initial residual = 3.25427e-05, Final residual = 5.12889e-07, No Iterations 1
time step continuity errors : sum local = 0.000110744, global = -1.44107e-05, cumulative = -6.83197
smoothSolver:  Solving for omega, Initial residual = 1.20942e-06, Final residual = 1.06396e-07, No Iterations 1
smoothSolver:  Solving for k, Initial residual = 4.11253e-06, Final residual = 3.04671e-07, No Iterations 2
bounding k, min: -0.00640869 max: 49.9021 average: 7.33814
ExecutionTime = 34.3 s  ClockTime = 35 s

Time = 1481

smoothSolver:  Solving for Ux, Initial residual = 4.1647e-07, Final residual = 3.49327e-08, No Iterations 4
smoothSolver:  Solving for Uy, Initial residual = 9.65459e-06, Final residual = 8.10574e-07, No Iterations 1
GAMG:  Solving for p, Initial residual = 3.74092e-05, Final residual = 4.69181e-07, No Iterations 1
time step continuity errors : sum local = 0.000101324, global = -1.35798e-05, cumulative = -6.83198
smoothSolver:  Solving for omega, Initial residual = 1.19997e-06, Final residual = 1.07763e-07, No Iterations 1
smoothSolver:  Solving for k, Initial residual = 4.18606e-06, Final residual = 2.99418e-07, No Iterations 2
bounding k, min: -0.000409468 max: 49.9022 average: 7.33818
ExecutionTime = 34.32 s  ClockTime = 35 s

Time = 1482

smoothSolver:  Solving for Ux, Initial residual = 3.96163e-07, Final residual = 3.50482e-08, No Iterations 4
smoothSolver:  Solving for Uy, Initial residual = 3.13856e-06, Final residual = 2.2937e-07, No Iterations 3
GAMG:  Solving for p, Initial residual = 3.25773e-05, Final residual = 4.99042e-07, No Iterations 1
time step continuity errors : sum local = 0.000107755, global = -1.19335e-05, cumulative = -6.832
smoothSolver:  Solving for omega, Initial residual = 1.20503e-06, Final residual = 1.05993e-07, No Iterations 1
smoothSolver:  Solving for k, Initial residual = 4.18319e-06, Final residual = 3.0264e-07, No Iterations 2
bounding k, min: -0.00648666 max: 49.9022 average: 7.33815
ExecutionTime = 34.34 s  ClockTime = 35 s

Time = 1483

smoothSolver:  Solving for Ux, Initial residual = 4.18261e-07, Final residual = 3.48431e-08, No Iterations 4
smoothSolver:  Solving for Uy, Initial residual = 1.12747e-05, Final residual = 7.94287e-07, No Iterations 1
GAMG:  Solving for p, Initial residual = 3.72676e-05, Final residual = 4.59083e-07, No Iterations 1
time step continuity errors : sum local = 9.91428e-05, global = -1.0548e-05, cumulative = -6.83201
smoothSolver:  Solving for omega, Initial residual = 1.20432e-06, Final residual = 1.07532e-07, No Iterations 1
smoothSolver:  Solving for k, Initial residual = 4.36971e-06, Final residual = 2.97887e-07, No Iterations 2
bounding k, min: -0.000501061 max: 49.9023 average: 7.33822
ExecutionTime = 34.36 s  ClockTime = 35 s

Time = 1484

smoothSolver:  Solving for Ux, Initial residual = 3.90987e-07, Final residual = 3.49193e-08, No Iterations 4
smoothSolver:  Solving for Uy, Initial residual = 3.04256e-06, Final residual = 2.17917e-07, No Iterations 3
GAMG:  Solving for p, Initial residual = 3.23516e-05, Final residual = 4.90112e-07, No Iterations 1
time step continuity errors : sum local = 0.000105826, global = -8.77326e-06, cumulative = -6.83202
smoothSolver:  Solving for omega, Initial residual = 1.20616e-06, Final residual = 1.06581e-07, No Iterations 1
smoothSolver:  Solving for k, Initial residual = 4.3189e-06, Final residual = 2.9883e-07, No Iterations 2
bounding k, min: -0.00668114 max: 49.9023 average: 7.33818
ExecutionTime = 34.38 s  ClockTime = 35 s

Time = 1485

smoothSolver:  Solving for Ux, Initial residual = 3.96911e-07, Final residual = 3.47598e-08, No Iterations 4
smoothSolver:  Solving for Uy, Initial residual = 9.09346e-06, Final residual = 7.8605e-07, No Iterations 1
GAMG:  Solving for p, Initial residual = 3.67745e-05, Final residual = 4.50647e-07, No Iterations 1
time step continuity errors : sum local = 9.73208e-05, global = -7.36809e-06, cumulative = -6.83202
smoothSolver:  Solving for omega, Initial residual = 1.20028e-06, Final residual = 1.07605e-07, No Iterations 1
smoothSolver:  Solving for k, Initial residual = 4.31283e-06, Final residual = 2.93981e-07, No Iterations 2
bounding k, min: -0.000234972 max: 49.9024 average: 7.33825
ExecutionTime = 34.4 s  ClockTime = 35 s

Time = 1486

smoothSolver:  Solving for Ux, Initial residual = 3.83189e-07, Final residual = 3.4795e-08, No Iterations 4
smoothSolver:  Solving for Uy, Initial residual = 2.93579e-06, Final residual = 2.14447e-07, No Iterations 3
GAMG:  Solving for p, Initial residual = 3.21526e-05, Final residual = 4.79999e-07, No Iterations 1
time step continuity errors : sum local = 0.000103643, global = -5.83583e-06, cumulative = -6.83203
smoothSolver:  Solving for omega, Initial residual = 1.20367e-06, Final residual = 1.05691e-07, No Iterations 1
smoothSolver:  Solving for k, Initial residual = 4.26707e-06, Final residual = 2.97159e-07, No Iterations 2
bounding k, min: -0.00662012 max: 49.9024 average: 7.3382
ExecutionTime = 34.43 s  ClockTime = 35 s

Time = 1487

smoothSolver:  Solving for Ux, Initial residual = 3.96724e-07, Final residual = 3.46033e-08, No Iterations 4
smoothSolver:  Solving for Uy, Initial residual = 8.34591e-06, Final residual = 7.79139e-07, No Iterations 1
GAMG:  Solving for p, Initial residual = 3.66726e-05, Final residual = 4.40398e-07, No Iterations 1
time step continuity errors : sum local = 9.51073e-05, global = -4.67253e-06, cumulative = -6.83203
smoothSolver:  Solving for omega, Initial residual = 1.20459e-06, Final residual = 1.0745e-07, No Iterations 1
smoothSolver:  Solving for k, Initial residual = 4.19821e-06, Final residual = 2.92703e-07, No Iterations 2
bounding k, min: -0.00117195 max: 49.9024 average: 7.33823
ExecutionTime = 34.45 s  ClockTime = 35 s

Time = 1488

smoothSolver:  Solving for Ux, Initial residual = 3.92353e-07, Final residual = 3.4669e-08, No Iterations 4
smoothSolver:  Solving for Uy, Initial residual = 3.23834e-06, Final residual = 2.1333e-07, No Iterations 3
GAMG:  Solving for p, Initial residual = 3.30561e-05, Final residual = 4.78211e-07, No Iterations 1
time step continuity errors : sum local = 0.000103257, global = -3.43046e-06, cumulative = -6.83204
smoothSolver:  Solving for omega, Initial residual = 1.21143e-06, Final residual = 1.06314e-07, No Iterations 1
smoothSolver:  Solving for k, Initial residual = 4.13671e-06, Final residual = 2.94934e-07, No Iterations 2
bounding k, min: -0.00675182 max: 49.9025 average: 7.33823
ExecutionTime = 34.47 s  ClockTime = 35 s

Time = 1489

smoothSolver:  Solving for Ux, Initial residual = 3.92573e-07, Final residual = 3.45124e-08, No Iterations 4
smoothSolver:  Solving for Uy, Initial residual = 2.99187e-06, Final residual = 1.97889e-07, No Iterations 3
GAMG:  Solving for p, Initial residual = 3.78319e-05, Final residual = 4.34991e-07, No Iterations 1
time step continuity errors : sum local = 9.39396e-05, global = -2.33102e-06, cumulative = -6.83204
smoothSolver:  Solving for omega, Initial residual = 1.20122e-06, Final residual = 1.07397e-07, No Iterations 1
smoothSolver:  Solving for k, Initial residual = 4.26165e-06, Final residual = 2.91051e-07, No Iterations 2
bounding k, min: -0.000848095 max: 49.9025 average: 7.3382
ExecutionTime = 34.49 s  ClockTime = 35 s

Time = 1490

smoothSolver:  Solving for Ux, Initial residual = 6.20775e-07, Final residual = 5.32997e-08, No Iterations 3
smoothSolver:  Solving for Uy, Initial residual = 3.66318e-05, Final residual = 7.26253e-07, No Iterations 1
GAMG:  Solving for p, Initial residual = 3.19721e-05, Final residual = 5.23145e-07, No Iterations 1
time step continuity errors : sum local = 0.000112959, global = -2.19616e-06, cumulative = -6.83204
smoothSolver:  Solving for omega, Initial residual = 1.19082e-06, Final residual = 1.05064e-07, No Iterations 1
smoothSolver:  Solving for k, Initial residual = 4.07917e-06, Final residual = 2.92865e-07, No Iterations 2
bounding k, min: -0.00670195 max: 49.9026 average: 7.3382
ExecutionTime = 34.51 s  ClockTime = 35 s

Time = 1491

smoothSolver:  Solving for Ux, Initial residual = 3.85599e-07, Final residual = 3.43918e-08, No Iterations 4
smoothSolver:  Solving for Uy, Initial residual = 3.44528e-06, Final residual = 1.98715e-07, No Iterations 3
GAMG:  Solving for p, Initial residual = 3.68373e-05, Final residual = 4.43019e-07, No Iterations 1
time step continuity errors : sum local = 9.56735e-05, global = -1.55426e-06, cumulative = -6.83204
smoothSolver:  Solving for omega, Initial residual = 1.18592e-06, Final residual = 1.07456e-07, No Iterations 1
smoothSolver:  Solving for k, Initial residual = 3.94481e-06, Final residual = 2.89115e-07, No Iterations 2
bounding k, min: -0.000415664 max: 49.9026 average: 7.3382
ExecutionTime = 34.53 s  ClockTime = 35 s

Time = 1492

smoothSolver:  Solving for Ux, Initial residual = 3.78711e-07, Final residual = 3.43806e-08, No Iterations 4
smoothSolver:  Solving for Uy, Initial residual = 3.67381e-06, Final residual = 3.4484e-07, No Iterations 2
GAMG:  Solving for p, Initial residual = 3.18735e-05, Final residual = 4.30258e-07, No Iterations 1
time step continuity errors : sum local = 9.29026e-05, global = -1.07916e-06, cumulative = -6.83204
smoothSolver:  Solving for omega, Initial residual = 1.19482e-06, Final residual = 1.05275e-07, No Iterations 1
smoothSolver:  Solving for k, Initial residual = 3.94868e-06, Final residual = 2.91216e-07, No Iterations 2
bounding k, min: -0.0068002 max: 49.9027 average: 7.33818
ExecutionTime = 34.55 s  ClockTime = 35 s

Time = 1493

smoothSolver:  Solving for Ux, Initial residual = 3.78817e-07, Final residual = 3.41348e-08, No Iterations 4
smoothSolver:  Solving for Uy, Initial residual = 3.55583e-06, Final residual = 3.47456e-07, No Iterations 2
GAMG:  Solving for p, Initial residual = 3.76361e-05, Final residual = 4.42929e-07, No Iterations 1
time step continuity errors : sum local = 9.56541e-05, global = -7.50024e-07, cumulative = -6.83204
smoothSolver:  Solving for omega, Initial residual = 1.19679e-06, Final residual = 1.10062e-07, No Iterations 1
smoothSolver:  Solving for k, Initial residual = 3.98991e-06, Final residual = 2.8698e-07, No Iterations 2
bounding k, min: -0.000788885 max: 49.9027 average: 7.33819
ExecutionTime = 34.58 s  ClockTime = 35 s

Time = 1494

smoothSolver:  Solving for Ux, Initial residual = 3.83626e-07, Final residual = 3.40845e-08, No Iterations 4
smoothSolver:  Solving for Uy, Initial residual = 2.83038e-06, Final residual = 2.04694e-07, No Iterations 3
GAMG:  Solving for p, Initial residual = 3.71354e-05, Final residual = 4.69286e-07, No Iterations 1
time step continuity errors : sum local = 0.000101333, global = -2.33254e-07, cumulative = -6.83204
smoothSolver:  Solving for omega, Initial residual = 1.22384e-06, Final residual = 1.069e-07, No Iterations 1
smoothSolver:  Solving for k, Initial residual = 4.06381e-06, Final residual = 2.8908e-07, No Iterations 2
bounding k, min: -0.00695493 max: 49.9028 average: 7.33818
ExecutionTime = 34.59 s  ClockTime = 35 s

Time = 1495

smoothSolver:  Solving for Ux, Initial residual = 3.85622e-07, Final residual = 3.38725e-08, No Iterations 4
smoothSolver:  Solving for Uy, Initial residual = 2.97911e-06, Final residual = 1.92523e-07, No Iterations 3
GAMG:  Solving for p, Initial residual = 3.98721e-05, Final residual = 4.27472e-07, No Iterations 1
time step continuity errors : sum local = 9.23193e-05, global = 3.97228e-07, cumulative = -6.83204
smoothSolver:  Solving for omega, Initial residual = 1.23262e-06, Final residual = 1.12375e-07, No Iterations 1
smoothSolver:  Solving for k, Initial residual = 3.98933e-06, Final residual = 2.86321e-07, No Iterations 2
bounding k, min: -0.000803201 max: 49.9028 average: 7.33818
ExecutionTime = 34.61 s  ClockTime = 35 s

Time = 1496

smoothSolver:  Solving for Ux, Initial residual = 3.79955e-07, Final residual = 3.37881e-08, No Iterations 4
smoothSolver:  Solving for Uy, Initial residual = 2.74562e-06, Final residual = 1.84677e-07, No Iterations 3
GAMG:  Solving for p, Initial residual = 3.45106e-05, Final residual = 4.47686e-07, No Iterations 1
time step continuity errors : sum local = 9.66694e-05, global = 1.1213e-06, cumulative = -6.83204
smoothSolver:  Solving for omega, Initial residual = 1.23406e-06, Final residual = 1.0935e-07, No Iterations 1
smoothSolver:  Solving for k, Initial residual = 3.96042e-06, Final residual = 2.86014e-07, No Iterations 2
bounding k, min: -0.00650938 max: 49.9028 average: 7.33818
ExecutionTime = 34.64 s  ClockTime = 35 s

Time = 1497

smoothSolver:  Solving for Ux, Initial residual = 3.76227e-07, Final residual = 3.37011e-08, No Iterations 4
smoothSolver:  Solving for Uy, Initial residual = 2.85601e-06, Final residual = 1.83401e-07, No Iterations 3
GAMG:  Solving for p, Initial residual = 3.84629e-05, Final residual = 4.30614e-07, No Iterations 1
time step continuity errors : sum local = 9.2998e-05, global = 1.81762e-06, cumulative = -6.83204
smoothSolver:  Solving for omega, Initial residual = 1.22214e-06, Final residual = 1.12377e-07, No Iterations 1
smoothSolver:  Solving for k, Initial residual = 3.79508e-06, Final residual = 2.82655e-07, No Iterations 2
bounding k, min: -0.00071748 max: 49.9029 average: 7.33817
ExecutionTime = 34.66 s  ClockTime = 35 s

Time = 1498

smoothSolver:  Solving for Ux, Initial residual = 3.72613e-07, Final residual = 3.35208e-08, No Iterations 4
smoothSolver:  Solving for Uy, Initial residual = 2.67365e-06, Final residual = 1.81343e-07, No Iterations 3
GAMG:  Solving for p, Initial residual = 3.3354e-05, Final residual = 4.46678e-07, No Iterations 1
time step continuity errors : sum local = 9.64516e-05, global = 2.47443e-06, cumulative = -6.83204
smoothSolver:  Solving for omega, Initial residual = 1.22335e-06, Final residual = 1.08222e-07, No Iterations 1
smoothSolver:  Solving for k, Initial residual = 3.75346e-06, Final residual = 2.84551e-07, No Iterations 2
bounding k, min: -0.00631281 max: 49.9029 average: 7.33818
ExecutionTime = 34.68 s  ClockTime = 35 s

Time = 1499

smoothSolver:  Solving for Ux, Initial residual = 1.33284e-06, Final residual = 8.22816e-08, No Iterations 2
smoothSolver:  Solving for Uy, Initial residual = 6.14578e-05, Final residual = 7.18522e-07, No Iterations 1
GAMG:  Solving for p, Initial residual = 3.7435e-05, Final residual = 4.6666e-07, No Iterations 1
time step continuity errors : sum local = 0.000100782, global = 1.65293e-06, cumulative = -6.83204
smoothSolver:  Solving for omega, Initial residual = 1.21458e-06, Final residual = 1.11154e-07, No Iterations 1
smoothSolver:  Solving for k, Initial residual = 3.84208e-06, Final residual = 2.81711e-07, No Iterations 2
bounding k, min: -0.000234272 max: 49.903 average: 7.33818
ExecutionTime = 34.7 s  ClockTime = 35 s

Time = 1500

smoothSolver:  Solving for Ux, Initial residual = 3.75359e-07, Final residual = 3.33299e-08, No Iterations 4
smoothSolver:  Solving for Uy, Initial residual = 2.83419e-06, Final residual = 2.0168e-07, No Iterations 3
GAMG:  Solving for p, Initial residual = 3.238e-05, Final residual = 4.78524e-07, No Iterations 1
time step continuity errors : sum local = 0.000103328, global = 2.18436e-06, cumulative = -6.83204
smoothSolver:  Solving for omega, Initial residual = 1.22424e-06, Final residual = 1.08434e-07, No Iterations 1
smoothSolver:  Solving for k, Initial residual = 3.83559e-06, Final residual = 2.82621e-07, No Iterations 2
bounding k, min: -0.00627389 max: 49.903 average: 7.33818
ExecutionTime = 34.76 s  ClockTime = 35 s

    functionObjects::turbulenceFields stressComponents writing field: turbulenceProperties:devReff

    functionObjects::pressure pressureCoefficient writing field: cp
writeCellCentres writeCellCentres write:
    writing cell-centres field C to 1500
    Writing the x component field of the cell-centres Cx to 1500
    Writing the y component field of the cell-centres Cy to 1500
    Writing the z component field of the cell-centres Cz to 1500
wallShearStress wallShearStress write:
    writing field wallShearStress
    min/max(lowerWallStartup) = (-3.20996 -0.00324898 0), (-1.25241 0.0794686 0)
    min/max(upperWallStartup) = (-14.141 -0.00123609 0), (-3.53533 0.208794 0)
    min/max(upperWall) = (-3.5277 3.56118e-06 0), (-2.4669 9.1457e-05 0)
    min/max(verticalWall) = (-0.0219907 -0.237617 0), (0.0130089 0.0413459 0)
    min/max(lowerWall) = (-1.56427 -0.00685939 0), (1.03399 0.000653507 0)
yPlus yPlus write:
    writing field yPlus
    patch lowerWallStartup y+ : min = 1.12452, max = 1.80029, average = 1.37343
    patch upperWallStartup y+ : min = 1.88983, max = 3.77965, average = 2.04405
    patch upperWall y+ : min = 1.57864, max = 1.88779, average = 1.74335
    patch verticalWall y+ : min = 0.124384, max = 4.78252, average = 2.63237
    patch lowerWall y+ : min = 0.130887, max = 2.15594, average = 1.37532
End

