/*---------------------------------------------------------------------------*\
| =========                 |                                                 |
| \\      /  F ield         | OpenFOAM: The Open Source CFD Toolbox           |
|  \\    /   O peration     | Version:  2412                                  |
|   \\  /    A nd           | Website:  www.openfoam.com                      |
|    \\/     M anipulation  |                                                 |
\*---------------------------------------------------------------------------*/
Build  : _b8cf4d35-20260127 OPENFOAM=2412 patch=260127 version=2412
Arch   : "LSB;label=32;scalar=64"
Exec   : simpleFoam
Date   : May 26 2026
Time   : 00:27:35
Host   : DESKTOP-GAMC4FP
PID    : 1261987
I/O    : uncollated
Case   : /home/petros/cfd_projects/step_duct
nProcs : 1
trapFpe: Floating point exception trapping enabled (FOAM_SIGFPE).
fileModificationChecking : Monitoring run-time modified files using timeStampMaster (fileModificationSkew 5, maxFileModificationPolls 20)
allowSystemOperations : Allowing user-supplied system call operations

// * * * * * * * * * * * * * * * * * * * * * * * * * * * * * * * * * * * * * //
Create time

Create mesh for time = 0


SIMPLE: convergence criteria
    field p	 tolerance 0.0001
    field U	 tolerance 1e-06
    field "(k|epsilon|omega|f|v2)"	 tolerance 1e-05

Reading field p

Reading field U

Using dynamicCode for patch inlet on field U at line 29 in "/home/petros/cfd_projects/step_duct/0/U/boundaryField/inlet"
Reading/calculating face flux field phi

Selecting incompressible transport model Newtonian
Selecting turbulence model type RAS
Selecting RAS turbulence model kOmegaSST
Selecting patchDistMethod meshWave
RAS
{
    RASModel        kOmegaSST;
    turbulence      on;
    printCoeffs     on;
    productionLimit true;
    alphaK1         0.85;
    alphaK2         1;
    alphaOmega1     0.5;
    alphaOmega2     0.856;
    gamma1          0.555556;
    gamma2          0.44;
    beta1           0.075;
    beta2           0.0828;
    betaStar        0.09;
    a1              0.31;
    b1              1;
    c1              10;
    F3              false;
    decayControl    false;
    kInf            0;
    omegaInf        0;
}

No MRF models present

No finite volume options present

Starting time loop

turbulenceFields stressComponents: storing fields:
    turbulenceProperties:devReff

pressure pressureCoefficient:
    Operating mode: staticCoeff
    Not including hydrostatic effects

Sampled set:
    Uref -> raw
    x_by_h_m04 -> raw
    x_by_h_01 -> raw
    x_by_h_04 -> raw
    x_by_h_06 -> raw
    x_by_h_10 -> raw

wallShearStress wallShearStress:
    processing all (5) wall patches

Sampled set:
    line_X-0.051 -> raw
    line_X-0.025 -> raw
    line_X-0.013 -> raw
    line_X0.000 -> raw
    line_X0.013 -> raw
    line_X0.019 -> raw
    line_X0.025 -> raw
    line_X0.032 -> raw
    line_X0.038 -> raw
    line_X0.051 -> raw
    line_X0.064 -> raw
    line_X0.070 -> raw
    line_X0.076 -> raw
    line_X0.083 -> raw
    line_X0.089 -> raw
    line_X0.102 -> raw
    line_X0.127 -> raw
    line_X0.152 -> raw
    line_X0.178 -> raw
    line_X0.203 -> raw
    line_X0.254 -> raw
    line_X0.406 -> raw

Time = 1

smoothSolver:  Solving for Ux, Initial residual = 1, Final residual = 0.0991732, No Iterations 2
smoothSolver:  Solving for Uy, Initial residual = 1, Final residual = 0.0710368, No Iterations 5
GAMG:  Solving for p, Initial residual = 1, Final residual = 0.0644872, No Iterations 5
time step continuity errors : sum local = 5.12919, global = -0.768615, cumulative = -0.768615
smoothSolver:  Solving for omega, Initial residual = 0.0104699, Final residual = 0.000654392, No Iterations 2
smoothSolver:  Solving for k, Initial residual = 1, Final residual = 0.0649934, No Iterations 1
ExecutionTime = 1.25 s  ClockTime = 1 s

Time = 2

smoothSolver:  Solving for Ux, Initial residual = 0.00380795, Final residual = 0.000182752, No Iterations 2
smoothSolver:  Solving for Uy, Initial residual = 0.0642179, Final residual = 0.00497942, No Iterations 2
GAMG:  Solving for p, Initial residual = 0.236818, Final residual = 0.0228311, No Iterations 2
time step continuity errors : sum local = 5.1397, global = -0.528319, cumulative = -1.29693
smoothSolver:  Solving for omega, Initial residual = 0.0171298, Final residual = 0.00011407, No Iterations 1
smoothSolver:  Solving for k, Initial residual = 0.0701075, Final residual = 0.00185594, No Iterations 2
ExecutionTime = 1.34 s  ClockTime = 1 s

Time = 3

smoothSolver:  Solving for Ux, Initial residual = 0.00330959, Final residual = 0.000250098, No Iterations 2
smoothSolver:  Solving for Uy, Initial residual = 0.0610571, Final residual = 0.00512791, No Iterations 2
GAMG:  Solving for p, Initial residual = 0.0361662, Final residual = 0.00343066, No Iterations 3
time step continuity errors : sum local = 3.21038, global = -0.394824, cumulative = -1.69176
smoothSolver:  Solving for omega, Initial residual = 0.000701816, Final residual = 3.67765e-05, No Iterations 1
smoothSolver:  Solving for k, Initial residual = 0.0565501, Final residual = 0.00157624, No Iterations 2
ExecutionTime = 1.41 s  ClockTime = 1 s

Time = 4

smoothSolver:  Solving for Ux, Initial residual = 0.00222886, Final residual = 0.000171691, No Iterations 2
smoothSolver:  Solving for Uy, Initial residual = 0.0585386, Final residual = 0.00464876, No Iterations 2
GAMG:  Solving for p, Initial residual = 0.0215645, Final residual = 0.0014826, No Iterations 4
time step continuity errors : sum local = 1.85387, global = -0.273493, cumulative = -1.96525
smoothSolver:  Solving for omega, Initial residual = 0.000268901, Final residual = 1.72891e-05, No Iterations 1
smoothSolver:  Solving for k, Initial residual = 0.0640435, Final residual = 0.00184283, No Iterations 2
bounding k, min: -0.000180147 max: 0.0979418 average: 0.000929489
ExecutionTime = 1.49 s  ClockTime = 1 s

Time = 5

smoothSolver:  Solving for Ux, Initial residual = 0.00174552, Final residual = 0.000137604, No Iterations 2
smoothSolver:  Solving for Uy, Initial residual = 0.0543195, Final residual = 0.0042255, No Iterations 2
GAMG:  Solving for p, Initial residual = 0.0167385, Final residual = 0.00131852, No Iterations 4
time step continuity errors : sum local = 1.46832, global = -0.121848, cumulative = -2.0871
smoothSolver:  Solving for omega, Initial residual = 9.36653e-05, Final residual = 7.98384e-06, No Iterations 1
smoothSolver:  Solving for k, Initial residual = 0.0781772, Final residual = 0.00246403, No Iterations 2
ExecutionTime = 1.56 s  ClockTime = 1 s

Time = 6

smoothSolver:  Solving for Ux, Initial residual = 0.00169445, Final residual = 0.000139861, No Iterations 2
smoothSolver:  Solving for Uy, Initial residual = 0.0508443, Final residual = 0.00402653, No Iterations 2
GAMG:  Solving for p, Initial residual = 0.0118368, Final residual = 0.00104069, No Iterations 2
time step continuity errors : sum local = 1.09108, global = 0.0283742, cumulative = -2.05872
smoothSolver:  Solving for omega, Initial residual = 9.91055e-05, Final residual = 7.99565e-06, No Iterations 1
smoothSolver:  Solving for k, Initial residual = 0.107608, Final residual = 0.00346293, No Iterations 2
ExecutionTime = 1.62 s  ClockTime = 2 s

Time = 7

smoothSolver:  Solving for Ux, Initial residual = 0.00143248, Final residual = 0.000121253, No Iterations 2
smoothSolver:  Solving for Uy, Initial residual = 0.0485423, Final residual = 0.00389492, No Iterations 2
GAMG:  Solving for p, Initial residual = 0.00865574, Final residual = 0.000685652, No Iterations 4
time step continuity errors : sum local = 0.695057, global = 0.0911743, cumulative = -1.96755
smoothSolver:  Solving for omega, Initial residual = 7.94194e-05, Final residual = 4.98592e-06, No Iterations 1
smoothSolver:  Solving for k, Initial residual = 0.136006, Final residual = 0.00408726, No Iterations 2
ExecutionTime = 1.69 s  ClockTime = 2 s

Time = 8

smoothSolver:  Solving for Ux, Initial residual = 0.00165063, Final residual = 0.000144387, No Iterations 2
smoothSolver:  Solving for Uy, Initial residual = 0.0494532, Final residual = 0.00402496, No Iterations 2
GAMG:  Solving for p, Initial residual = 0.00630675, Final residual = 0.000526184, No Iterations 3
time step continuity errors : sum local = 0.504303, global = 0.0918181, cumulative = -1.87573
smoothSolver:  Solving for omega, Initial residual = 9.45472e-05, Final residual = 6.90056e-06, No Iterations 1
smoothSolver:  Solving for k, Initial residual = 0.0948771, Final residual = 0.00308044, No Iterations 2
ExecutionTime = 1.75 s  ClockTime = 2 s

Time = 9

smoothSolver:  Solving for Ux, Initial residual = 0.00156322, Final residual = 0.000137212, No Iterations 2
smoothSolver:  Solving for Uy, Initial residual = 0.0478168, Final residual = 0.00392871, No Iterations 2
GAMG:  Solving for p, Initial residual = 0.00587775, Final residual = 0.000425448, No Iterations 4
time step continuity errors : sum local = 0.354171, global = 0.0212058, cumulative = -1.85453
smoothSolver:  Solving for omega, Initial residual = 6.04769e-05, Final residual = 5.02938e-06, No Iterations 1
smoothSolver:  Solving for k, Initial residual = 0.0733239, Final residual = 0.00252675, No Iterations 2
bounding k, min: -0.000706607 max: 0.0776361 average: 0.0013666
ExecutionTime = 1.82 s  ClockTime = 2 s

Time = 10

smoothSolver:  Solving for Ux, Initial residual = 0.00147513, Final residual = 0.000128801, No Iterations 2
smoothSolver:  Solving for Uy, Initial residual = 0.0460753, Final residual = 0.00380402, No Iterations 2
GAMG:  Solving for p, Initial residual = 0.00598327, Final residual = 0.000493526, No Iterations 2
time step continuity errors : sum local = 0.348396, global = -0.034519, cumulative = -1.88904
smoothSolver:  Solving for omega, Initial residual = 3.93647e-05, Final residual = 3.7028e-06, No Iterations 1
smoothSolver:  Solving for k, Initial residual = 0.0617451, Final residual = 0.00214763, No Iterations 2
ExecutionTime = 1.88 s  ClockTime = 2 s

Time = 11

smoothSolver:  Solving for Ux, Initial residual = 0.00175225, Final residual = 0.000154958, No Iterations 2
smoothSolver:  Solving for Uy, Initial residual = 0.0467178, Final residual = 0.00388633, No Iterations 2
GAMG:  Solving for p, Initial residual = 0.00515596, Final residual = 0.000440463, No Iterations 4
time step continuity errors : sum local = 0.326499, global = -0.0274201, cumulative = -1.91647
smoothSolver:  Solving for omega, Initial residual = 7.50936e-05, Final residual = 6.27661e-06, No Iterations 1
smoothSolver:  Solving for k, Initial residual = 0.0498929, Final residual = 0.00195997, No Iterations 2
ExecutionTime = 1.97 s  ClockTime = 2 s

Time = 12

smoothSolver:  Solving for Ux, Initial residual = 0.00177466, Final residual = 0.00015668, No Iterations 2
smoothSolver:  Solving for Uy, Initial residual = 0.0461859, Final residual = 0.00386787, No Iterations 2
GAMG:  Solving for p, Initial residual = 0.00411642, Final residual = 0.000312811, No Iterations 5
time step continuity errors : sum local = 0.264109, global = -0.0258629, cumulative = -1.94233
smoothSolver:  Solving for omega, Initial residual = 6.84596e-05, Final residual = 5.83228e-06, No Iterations 1
smoothSolver:  Solving for k, Initial residual = 0.0419033, Final residual = 0.00191166, No Iterations 2
ExecutionTime = 2.05 s  ClockTime = 2 s

Time = 13

smoothSolver:  Solving for Ux, Initial residual = 0.00168789, Final residual = 0.000148145, No Iterations 2
smoothSolver:  Solving for Uy, Initial residual = 0.044925, Final residual = 0.00377728, No Iterations 2
GAMG:  Solving for p, Initial residual = 0.00316289, Final residual = 0.000222735, No Iterations 4
time step continuity errors : sum local = 0.225866, global = -0.0239908, cumulative = -1.96632
smoothSolver:  Solving for omega, Initial residual = 4.40174e-05, Final residual = 4.17813e-06, No Iterations 1
smoothSolver:  Solving for k, Initial residual = 0.0378816, Final residual = 0.00189169, No Iterations 2
ExecutionTime = 2.12 s  ClockTime = 2 s

Time = 14

smoothSolver:  Solving for Ux, Initial residual = 0.00181358, Final residual = 0.000159301, No Iterations 2
smoothSolver:  Solving for Uy, Initial residual = 0.0448556, Final residual = 0.00378753, No Iterations 2
GAMG:  Solving for p, Initial residual = 0.00279377, Final residual = 0.000261162, No Iterations 3
time step continuity errors : sum local = 0.28615, global = -0.0165693, cumulative = -1.98289
smoothSolver:  Solving for omega, Initial residual = 5.31769e-05, Final residual = 4.91092e-06, No Iterations 1
smoothSolver:  Solving for k, Initial residual = 0.0339558, Final residual = 0.00186563, No Iterations 2
ExecutionTime = 2.19 s  ClockTime = 2 s

Time = 15

smoothSolver:  Solving for Ux, Initial residual = 0.00175099, Final residual = 0.000152384, No Iterations 2
smoothSolver:  Solving for Uy, Initial residual = 0.0439727, Final residual = 0.00372543, No Iterations 2
GAMG:  Solving for p, Initial residual = 0.00268637, Final residual = 0.00022338, No Iterations 3
time step continuity errors : sum local = 0.255938, global = -0.0171363, cumulative = -2.00002
smoothSolver:  Solving for omega, Initial residual = 4.20996e-05, Final residual = 4.00244e-06, No Iterations 1
smoothSolver:  Solving for k, Initial residual = 0.0318771, Final residual = 0.00178889, No Iterations 2
ExecutionTime = 2.26 s  ClockTime = 2 s

Time = 16

smoothSolver:  Solving for Ux, Initial residual = 0.00180606, Final residual = 0.00015813, No Iterations 2
smoothSolver:  Solving for Uy, Initial residual = 0.0436764, Final residual = 0.00371486, No Iterations 2
GAMG:  Solving for p, Initial residual = 0.00270762, Final residual = 0.000248837, No Iterations 3
time step continuity errors : sum local = 0.286849, global = -0.0249992, cumulative = -2.02502
smoothSolver:  Solving for omega, Initial residual = 4.16747e-05, Final residual = 4.09569e-06, No Iterations 1
smoothSolver:  Solving for k, Initial residual = 0.0294026, Final residual = 0.00174176, No Iterations 2
ExecutionTime = 2.35 s  ClockTime = 2 s

Time = 17

smoothSolver:  Solving for Ux, Initial residual = 0.00195968, Final residual = 0.000172015, No Iterations 2
smoothSolver:  Solving for Uy, Initial residual = 0.0439581, Final residual = 0.00375015, No Iterations 2
GAMG:  Solving for p, Initial residual = 0.00269287, Final residual = 0.000221523, No Iterations 3
time step continuity errors : sum local = 0.258268, global = -0.0369151, cumulative = -2.06194
smoothSolver:  Solving for omega, Initial residual = 4.87054e-05, Final residual = 1.20712e-06, No Iterations 2
smoothSolver:  Solving for k, Initial residual = 0.0266274, Final residual = 0.00172879, No Iterations 2
bounding k, min: -0.000347931 max: 0.388514 average: 0.00328668
ExecutionTime = 2.42 s  ClockTime = 2 s

Time = 18

smoothSolver:  Solving for Ux, Initial residual = 0.00188321, Final residual = 0.000164168, No Iterations 2
smoothSolver:  Solving for Uy, Initial residual = 0.0432771, Final residual = 0.00370238, No Iterations 2
GAMG:  Solving for p, Initial residual = 0.00259044, Final residual = 0.000201964, No Iterations 3
time step continuity errors : sum local = 0.240668, global = -0.0436399, cumulative = -2.10558
smoothSolver:  Solving for omega, Initial residual = 2.87091e-05, Final residual = 9.35075e-07, No Iterations 2
smoothSolver:  Solving for k, Initial residual = 0.0251586, Final residual = 0.00162942, No Iterations 2
ExecutionTime = 2.49 s  ClockTime = 2 s

Time = 19

smoothSolver:  Solving for Ux, Initial residual = 0.00191615, Final residual = 0.000166109, No Iterations 2
smoothSolver:  Solving for Uy, Initial residual = 0.0430686, Final residual = 0.00369261, No Iterations 2
GAMG:  Solving for p, Initial residual = 0.00252154, Final residual = 0.000189135, No Iterations 3
time step continuity errors : sum local = 0.231739, global = -0.0443499, cumulative = -2.14993
smoothSolver:  Solving for omega, Initial residual = 2.47457e-05, Final residual = 8.47449e-07, No Iterations 2
smoothSolver:  Solving for k, Initial residual = 0.0243138, Final residual = 0.0015899, No Iterations 2
bounding k, min: -8.1025e-05 max: 0.472572 average: 0.00411203
ExecutionTime = 2.56 s  ClockTime = 3 s

Time = 20

smoothSolver:  Solving for Ux, Initial residual = 0.00195686, Final residual = 0.00016916, No Iterations 2
smoothSolver:  Solving for Uy, Initial residual = 0.0429638, Final residual = 0.00368797, No Iterations 2
GAMG:  Solving for p, Initial residual = 0.00261989, Final residual = 0.000190832, No Iterations 3
time step continuity errors : sum local = 0.240318, global = -0.0423432, cumulative = -2.19227
smoothSolver:  Solving for omega, Initial residual = 2.43857e-05, Final residual = 8.02185e-07, No Iterations 2
smoothSolver:  Solving for k, Initial residual = 0.0231448, Final residual = 0.00151373, No Iterations 2
ExecutionTime = 2.63 s  ClockTime = 3 s

Time = 21

smoothSolver:  Solving for Ux, Initial residual = 0.00208551, Final residual = 0.000181233, No Iterations 2
smoothSolver:  Solving for Uy, Initial residual = 0.0431954, Final residual = 0.00371541, No Iterations 2
GAMG:  Solving for p, Initial residual = 0.00256899, Final residual = 0.00018505, No Iterations 3
time step continuity errors : sum local = 0.237906, global = -0.0408889, cumulative = -2.23316
smoothSolver:  Solving for omega, Initial residual = 3.24116e-05, Final residual = 1.02312e-06, No Iterations 2
smoothSolver:  Solving for k, Initial residual = 0.021725, Final residual = 0.00146513, No Iterations 2
ExecutionTime = 2.7 s  ClockTime = 3 s

Time = 22

smoothSolver:  Solving for Ux, Initial residual = 0.00209924, Final residual = 0.000182066, No Iterations 2
smoothSolver:  Solving for Uy, Initial residual = 0.0430451, Final residual = 0.00370783, No Iterations 2
GAMG:  Solving for p, Initial residual = 0.00247404, Final residual = 0.000171185, No Iterations 3
time step continuity errors : sum local = 0.22383, global = -0.0386525, cumulative = -2.27181
smoothSolver:  Solving for omega, Initial residual = 3.106e-05, Final residual = 9.7999e-07, No Iterations 2
smoothSolver:  Solving for k, Initial residual = 0.0210362, Final residual = 0.00141293, No Iterations 2
bounding k, min: -2.29133e-05 max: 0.555219 average: 0.00565833
ExecutionTime = 2.77 s  ClockTime = 3 s

Time = 23

smoothSolver:  Solving for Ux, Initial residual = 0.0021549, Final residual = 0.000186429, No Iterations 2
smoothSolver:  Solving for Uy, Initial residual = 0.0430942, Final residual = 0.00371295, No Iterations 2
GAMG:  Solving for p, Initial residual = 0.00254911, Final residual = 0.000166285, No Iterations 3
time step continuity errors : sum local = 0.219652, global = -0.0369876, cumulative = -2.3088
smoothSolver:  Solving for omega, Initial residual = 2.92856e-05, Final residual = 9.23411e-07, No Iterations 2
smoothSolver:  Solving for k, Initial residual = 0.0204615, Final residual = 0.00136769, No Iterations 2
ExecutionTime = 2.83 s  ClockTime = 3 s

Time = 24

smoothSolver:  Solving for Ux, Initial residual = 0.00212569, Final residual = 0.000183579, No Iterations 2
smoothSolver:  Solving for Uy, Initial residual = 0.0428818, Final residual = 0.00369979, No Iterations 2
GAMG:  Solving for p, Initial residual = 0.00254832, Final residual = 0.000165401, No Iterations 3
time step continuity errors : sum local = 0.218892, global = -0.0376979, cumulative = -2.3465
smoothSolver:  Solving for omega, Initial residual = 2.52952e-05, Final residual = 8.0642e-07, No Iterations 2
smoothSolver:  Solving for k, Initial residual = 0.0200021, Final residual = 0.00132281, No Iterations 2
ExecutionTime = 2.9 s  ClockTime = 3 s

Time = 25

smoothSolver:  Solving for Ux, Initial residual = 0.00226871, Final residual = 0.000195966, No Iterations 2
smoothSolver:  Solving for Uy, Initial residual = 0.0432049, Final residual = 0.00372906, No Iterations 2
GAMG:  Solving for p, Initial residual = 0.00259718, Final residual = 0.000168081, No Iterations 3
time step continuity errors : sum local = 0.222456, global = -0.0387579, cumulative = -2.38526
smoothSolver:  Solving for omega, Initial residual = 3.21523e-05, Final residual = 1.01603e-06, No Iterations 2
smoothSolver:  Solving for k, Initial residual = 0.019749, Final residual = 0.00127337, No Iterations 2
ExecutionTime = 2.97 s  ClockTime = 3 s

Time = 26

smoothSolver:  Solving for Ux, Initial residual = 0.00231176, Final residual = 0.000199412, No Iterations 2
smoothSolver:  Solving for Uy, Initial residual = 0.0432473, Final residual = 0.00373406, No Iterations 2
GAMG:  Solving for p, Initial residual = 0.00264488, Final residual = 0.00016959, No Iterations 3
time step continuity errors : sum local = 0.224412, global = -0.0398996, cumulative = -2.42516
smoothSolver:  Solving for omega, Initial residual = 3.12946e-05, Final residual = 1.00291e-06, No Iterations 2
smoothSolver:  Solving for k, Initial residual = 0.0193092, Final residual = 0.00122561, No Iterations 2
ExecutionTime = 3.03 s  ClockTime = 3 s

Time = 27

smoothSolver:  Solving for Ux, Initial residual = 0.00226182, Final residual = 0.000193299, No Iterations 2
smoothSolver:  Solving for Uy, Initial residual = 0.0431167, Final residual = 0.00371955, No Iterations 2
GAMG:  Solving for p, Initial residual = 0.00270343, Final residual = 0.000168077, No Iterations 3
time step continuity errors : sum local = 0.2225, global = -0.0413226, cumulative = -2.46648
smoothSolver:  Solving for omega, Initial residual = 2.6444e-05, Final residual = 8.48068e-07, No Iterations 2
smoothSolver:  Solving for k, Initial residual = 0.0190842, Final residual = 0.00117334, No Iterations 2
ExecutionTime = 3.1 s  ClockTime = 3 s

Time = 28

smoothSolver:  Solving for Ux, Initial residual = 0.00246187, Final residual = 0.000211664, No Iterations 2
smoothSolver:  Solving for Uy, Initial residual = 0.0434754, Final residual = 0.00375308, No Iterations 2
GAMG:  Solving for p, Initial residual = 0.0026683, Final residual = 0.000171676, No Iterations 3
time step continuity errors : sum local = 0.227318, global = -0.0432864, cumulative = -2.50977
smoothSolver:  Solving for omega, Initial residual = 3.37836e-05, Final residual = 1.0752e-06, No Iterations 2
smoothSolver:  Solving for k, Initial residual = 0.0191799, Final residual = 0.00112898, No Iterations 2
ExecutionTime = 3.16 s  ClockTime = 3 s

Time = 29

smoothSolver:  Solving for Ux, Initial residual = 0.00246593, Final residual = 0.000211412, No Iterations 2
smoothSolver:  Solving for Uy, Initial residual = 0.0434878, Final residual = 0.00375021, No Iterations 2
GAMG:  Solving for p, Initial residual = 0.00277856, Final residual = 0.000176299, No Iterations 3
time step continuity errors : sum local = 0.233417, global = -0.0459969, cumulative = -2.55576
smoothSolver:  Solving for omega, Initial residual = 3.05254e-05, Final residual = 9.91074e-07, No Iterations 2
smoothSolver:  Solving for k, Initial residual = 0.0191737, Final residual = 0.00109613, No Iterations 2
ExecutionTime = 3.23 s  ClockTime = 3 s

Time = 30

smoothSolver:  Solving for Ux, Initial residual = 0.00256813, Final residual = 0.000219991, No Iterations 2
smoothSolver:  Solving for Uy, Initial residual = 0.0436083, Final residual = 0.00376166, No Iterations 2
GAMG:  Solving for p, Initial residual = 0.002807, Final residual = 0.00017394, No Iterations 3
time step continuity errors : sum local = 0.23052, global = -0.04902, cumulative = -2.60478
smoothSolver:  Solving for omega, Initial residual = 3.54429e-05, Final residual = 1.16124e-06, No Iterations 2
smoothSolver:  Solving for k, Initial residual = 0.0192848, Final residual = 0.00105047, No Iterations 2
ExecutionTime = 3.3 s  ClockTime = 3 s

Time = 31

smoothSolver:  Solving for Ux, Initial residual = 0.00238629, Final residual = 0.000203189, No Iterations 2
smoothSolver:  Solving for Uy, Initial residual = 0.043372, Final residual = 0.00373762, No Iterations 2
GAMG:  Solving for p, Initial residual = 0.00284138, Final residual = 0.000184603, No Iterations 3
time step continuity errors : sum local = 0.244489, global = -0.0515273, cumulative = -2.65631
smoothSolver:  Solving for omega, Initial residual = 2.54621e-05, Final residual = 8.19637e-07, No Iterations 2
smoothSolver:  Solving for k, Initial residual = 0.0196361, Final residual = 0.00101743, No Iterations 2
ExecutionTime = 3.37 s  ClockTime = 3 s

Time = 32

smoothSolver:  Solving for Ux, Initial residual = 0.00267497, Final residual = 0.000228356, No Iterations 2
smoothSolver:  Solving for Uy, Initial residual = 0.0437383, Final residual = 0.00376736, No Iterations 2
GAMG:  Solving for p, Initial residual = 0.002937, Final residual = 0.000185904, No Iterations 3
time step continuity errors : sum local = 0.246243, global = -0.0532175, cumulative = -2.70953
smoothSolver:  Solving for omega, Initial residual = 3.2889e-05, Final residual = 1.07087e-06, No Iterations 2
smoothSolver:  Solving for k, Initial residual = 0.0200904, Final residual = 0.000998914, No Iterations 2
ExecutionTime = 3.43 s  ClockTime = 3 s

Time = 33

smoothSolver:  Solving for Ux, Initial residual = 0.0028365, Final residual = 0.000242007, No Iterations 2
smoothSolver:  Solving for Uy, Initial residual = 0.0438983, Final residual = 0.00377808, No Iterations 2
GAMG:  Solving for p, Initial residual = 0.00297674, Final residual = 0.000193571, No Iterations 3
time step continuity errors : sum local = 0.256929, global = -0.0514343, cumulative = -2.76096
smoothSolver:  Solving for omega, Initial residual = 3.86514e-05, Final residual = 1.23349e-06, No Iterations 2
smoothSolver:  Solving for k, Initial residual = 0.0221227, Final residual = 0.000944691, No Iterations 2
bounding k, min: -0.000370785 max: 5.81394 average: 0.0159211
ExecutionTime = 3.5 s  ClockTime = 4 s

Time = 34

smoothSolver:  Solving for Ux, Initial residual = 0.00276179, Final residual = 0.000234585, No Iterations 2
smoothSolver:  Solving for Uy, Initial residual = 0.0438526, Final residual = 0.00377085, No Iterations 2
GAMG:  Solving for p, Initial residual = 0.00300222, Final residual = 0.000210681, No Iterations 3
time step continuity errors : sum local = 0.282031, global = -0.0467496, cumulative = -2.80771
smoothSolver:  Solving for omega, Initial residual = 3.36413e-05, Final residual = 1.0786e-06, No Iterations 2
smoothSolver:  Solving for k, Initial residual = 0.02225, Final residual = 0.000931846, No Iterations 2
bounding k, min: -0.000187808 max: 2.68249 average: 0.0171597
ExecutionTime = 3.56 s  ClockTime = 4 s

Time = 35

smoothSolver:  Solving for Ux, Initial residual = 0.00274719, Final residual = 0.00023213, No Iterations 2
smoothSolver:  Solving for Uy, Initial residual = 0.0438787, Final residual = 0.00376729, No Iterations 2
GAMG:  Solving for p, Initial residual = 0.00300284, Final residual = 0.000224972, No Iterations 3
time step continuity errors : sum local = 0.306066, global = -0.0413731, cumulative = -2.84908
smoothSolver:  Solving for omega, Initial residual = 3.27876e-05, Final residual = 1.04002e-06, No Iterations 2
smoothSolver:  Solving for k, Initial residual = 0.0215899, Final residual = 0.00092583, No Iterations 2
bounding k, min: -0.000464321 max: 2.84833 average: 0.0185311
ExecutionTime = 3.63 s  ClockTime = 4 s

Time = 36

smoothSolver:  Solving for Ux, Initial residual = 0.00294711, Final residual = 0.000249196, No Iterations 2
smoothSolver:  Solving for Uy, Initial residual = 0.0440151, Final residual = 0.00377595, No Iterations 2
GAMG:  Solving for p, Initial residual = 0.00303663, Final residual = 0.000227875, No Iterations 3
time step continuity errors : sum local = 0.308296, global = -0.0368166, cumulative = -2.8859
smoothSolver:  Solving for omega, Initial residual = 3.68596e-05, Final residual = 1.15046e-06, No Iterations 2
smoothSolver:  Solving for k, Initial residual = 0.0226797, Final residual = 0.000918979, No Iterations 2
ExecutionTime = 3.7 s  ClockTime = 4 s

Time = 37

smoothSolver:  Solving for Ux, Initial residual = 0.00311222, Final residual = 0.000263579, No Iterations 2
smoothSolver:  Solving for Uy, Initial residual = 0.0440681, Final residual = 0.00377834, No Iterations 2
GAMG:  Solving for p, Initial residual = 0.00316241, Final residual = 0.000247102, No Iterations 3
time step continuity errors : sum local = 0.325603, global = -0.0272671, cumulative = -2.91317
smoothSolver:  Solving for omega, Initial residual = 4.48712e-05, Final residual = 1.39455e-06, No Iterations 2
smoothSolver:  Solving for k, Initial residual = 0.0262855, Final residual = 0.000864463, No Iterations 2
bounding k, min: -0.000968729 max: 13.098 average: 0.0219969
ExecutionTime = 3.76 s  ClockTime = 4 s

Time = 38

smoothSolver:  Solving for Ux, Initial residual = 0.00301322, Final residual = 0.00025417, No Iterations 2
smoothSolver:  Solving for Uy, Initial residual = 0.0440644, Final residual = 0.00377234, No Iterations 2
GAMG:  Solving for p, Initial residual = 0.00330962, Final residual = 0.000245459, No Iterations 3
time step continuity errors : sum local = 0.317735, global = -0.0225711, cumulative = -2.93574
smoothSolver:  Solving for omega, Initial residual = 3.78069e-05, Final residual = 1.13397e-06, No Iterations 2
smoothSolver:  Solving for k, Initial residual = 0.0272341, Final residual = 0.000884377, No Iterations 2
bounding k, min: -0.00191083 max: 3.90513 average: 0.0233822
ExecutionTime = 3.83 s  ClockTime = 4 s

Time = 39

smoothSolver:  Solving for Ux, Initial residual = 0.00307739, Final residual = 0.000258975, No Iterations 2
smoothSolver:  Solving for Uy, Initial residual = 0.0440845, Final residual = 0.00377118, No Iterations 2
GAMG:  Solving for p, Initial residual = 0.00344871, Final residual = 0.000271522, No Iterations 3
time step continuity errors : sum local = 0.335821, global = -0.0240101, cumulative = -2.95975
smoothSolver:  Solving for omega, Initial residual = 3.95824e-05, Final residual = 1.16021e-06, No Iterations 2
smoothSolver:  Solving for k, Initial residual = 0.0302603, Final residual = 0.000905569, No Iterations 2
bounding k, min: -0.00169939 max: 25.4083 average: 0.025679
ExecutionTime = 3.9 s  ClockTime = 4 s

Time = 40

smoothSolver:  Solving for Ux, Initial residual = 0.00312924, Final residual = 0.000262932, No Iterations 2
smoothSolver:  Solving for Uy, Initial residual = 0.0441127, Final residual = 0.00376781, No Iterations 2
GAMG:  Solving for p, Initial residual = 0.00374587, Final residual = 0.000278595, No Iterations 3
time step continuity errors : sum local = 0.330337, global = -0.0378942, cumulative = -2.99764
smoothSolver:  Solving for omega, Initial residual = 4.03591e-05, Final residual = 1.17089e-06, No Iterations 2
smoothSolver:  Solving for k, Initial residual = 0.0315185, Final residual = 0.00086044, No Iterations 2
bounding k, min: -0.00389649 max: 7.55839 average: 0.027036
ExecutionTime = 3.97 s  ClockTime = 4 s

Time = 41

smoothSolver:  Solving for Ux, Initial residual = 0.00313954, Final residual = 0.000262049, No Iterations 2
smoothSolver:  Solving for Uy, Initial residual = 0.0440279, Final residual = 0.0037565, No Iterations 2
GAMG:  Solving for p, Initial residual = 0.00397679, Final residual = 0.000268507, No Iterations 3
time step continuity errors : sum local = 0.305357, global = -0.0571018, cumulative = -3.05474
smoothSolver:  Solving for omega, Initial residual = 4.17713e-05, Final residual = 1.20086e-06, No Iterations 2
smoothSolver:  Solving for k, Initial residual = 0.0287358, Final residual = 0.000899632, No Iterations 2
ExecutionTime = 4.03 s  ClockTime = 4 s

Time = 42

smoothSolver:  Solving for Ux, Initial residual = 0.00344774, Final residual = 0.000289184, No Iterations 2
smoothSolver:  Solving for Uy, Initial residual = 0.0439675, Final residual = 0.00374695, No Iterations 2
GAMG:  Solving for p, Initial residual = 0.00414914, Final residual = 0.000279453, No Iterations 3
time step continuity errors : sum local = 0.303077, global = -0.06959, cumulative = -3.12433
smoothSolver:  Solving for omega, Initial residual = 4.8774e-05, Final residual = 1.40081e-06, No Iterations 2
smoothSolver:  Solving for k, Initial residual = 0.029905, Final residual = 0.000883056, No Iterations 2
ExecutionTime = 4.1 s  ClockTime = 4 s

Time = 43

smoothSolver:  Solving for Ux, Initial residual = 0.00319395, Final residual = 0.000265284, No Iterations 2
smoothSolver:  Solving for Uy, Initial residual = 0.043855, Final residual = 0.00373091, No Iterations 2
GAMG:  Solving for p, Initial residual = 0.00459145, Final residual = 0.000294077, No Iterations 3
time step continuity errors : sum local = 0.304826, global = -0.070408, cumulative = -3.19474
smoothSolver:  Solving for omega, Initial residual = 4.05459e-05, Final residual = 1.17442e-06, No Iterations 2
smoothSolver:  Solving for k, Initial residual = 0.0314832, Final residual = 0.000932412, No Iterations 2
ExecutionTime = 4.16 s  ClockTime = 4 s

Time = 44

smoothSolver:  Solving for Ux, Initial residual = 0.00342406, Final residual = 0.000285538, No Iterations 2
smoothSolver:  Solving for Uy, Initial residual = 0.0438064, Final residual = 0.00372228, No Iterations 2
GAMG:  Solving for p, Initial residual = 0.00481365, Final residual = 0.000301344, No Iterations 3
time step continuity errors : sum local = 0.301243, global = -0.0689517, cumulative = -3.26369
smoothSolver:  Solving for omega, Initial residual = 4.48908e-05, Final residual = 1.34845e-06, No Iterations 2
smoothSolver:  Solving for k, Initial residual = 0.0330823, Final residual = 0.000930969, No Iterations 2
ExecutionTime = 4.23 s  ClockTime = 4 s

Time = 45

smoothSolver:  Solving for Ux, Initial residual = 0.00357921, Final residual = 0.000298058, No Iterations 2
smoothSolver:  Solving for Uy, Initial residual = 0.0437424, Final residual = 0.00371048, No Iterations 2
GAMG:  Solving for p, Initial residual = 0.00493234, Final residual = 0.000309278, No Iterations 3
time step continuity errors : sum local = 0.300758, global = -0.0712998, cumulative = -3.33499
smoothSolver:  Solving for omega, Initial residual = 4.84082e-05, Final residual = 1.46272e-06, No Iterations 2
smoothSolver:  Solving for k, Initial residual = 0.0347473, Final residual = 0.000930496, No Iterations 2
ExecutionTime = 4.3 s  ClockTime = 4 s

Time = 46

smoothSolver:  Solving for Ux, Initial residual = 0.00332871, Final residual = 0.000273943, No Iterations 2
smoothSolver:  Solving for Uy, Initial residual = 0.0435929, Final residual = 0.00368796, No Iterations 2
GAMG:  Solving for p, Initial residual = 0.00522483, Final residual = 0.000308014, No Iterations 3
time step continuity errors : sum local = 0.29587, global = -0.0783167, cumulative = -3.41331
smoothSolver:  Solving for omega, Initial residual = 3.62271e-05, Final residual = 1.08935e-06, No Iterations 2
smoothSolver:  Solving for k, Initial residual = 0.0368041, Final residual = 0.000930498, No Iterations 2
ExecutionTime = 4.37 s  ClockTime = 4 s

Time = 47

smoothSolver:  Solving for Ux, Initial residual = 0.00355038, Final residual = 0.000293466, No Iterations 2
smoothSolver:  Solving for Uy, Initial residual = 0.0435158, Final residual = 0.00367741, No Iterations 2
GAMG:  Solving for p, Initial residual = 0.00528419, Final residual = 0.000293852, No Iterations 3
time step continuity errors : sum local = 0.283291, global = -0.0786048, cumulative = -3.49192
smoothSolver:  Solving for omega, Initial residual = 4.79038e-05, Final residual = 1.34525e-06, No Iterations 2
smoothSolver:  Solving for k, Initial residual = 0.0383869, Final residual = 0.000958904, No Iterations 2
ExecutionTime = 4.44 s  ClockTime = 4 s

Time = 48

smoothSolver:  Solving for Ux, Initial residual = 0.0035605, Final residual = 0.000291231, No Iterations 2
smoothSolver:  Solving for Uy, Initial residual = 0.0434582, Final residual = 0.00365965, No Iterations 2
GAMG:  Solving for p, Initial residual = 0.00522262, Final residual = 0.000264801, No Iterations 3
time step continuity errors : sum local = 0.257785, global = -0.0733684, cumulative = -3.56528
smoothSolver:  Solving for omega, Initial residual = 4.51941e-05, Final residual = 1.18397e-06, No Iterations 2
smoothSolver:  Solving for k, Initial residual = 0.0391589, Final residual = 0.000913778, No Iterations 2
ExecutionTime = 4.5 s  ClockTime = 5 s

Time = 49

smoothSolver:  Solving for Ux, Initial residual = 0.00377601, Final residual = 0.000308789, No Iterations 2
smoothSolver:  Solving for Uy, Initial residual = 0.0433418, Final residual = 0.0036481, No Iterations 2
GAMG:  Solving for p, Initial residual = 0.00547989, Final residual = 0.000545059, No Iterations 2
time step continuity errors : sum local = 0.53286, global = -0.0226744, cumulative = -3.58796
smoothSolver:  Solving for omega, Initial residual = 5.53078e-05, Final residual = 1.51848e-06, No Iterations 2
smoothSolver:  Solving for k, Initial residual = 0.0404086, Final residual = 0.000976065, No Iterations 2
ExecutionTime = 4.56 s  ClockTime = 5 s

Time = 50

smoothSolver:  Solving for Ux, Initial residual = 0.00332524, Final residual = 0.000268643, No Iterations 2
smoothSolver:  Solving for Uy, Initial residual = 0.0431439, Final residual = 0.00362118, No Iterations 2
GAMG:  Solving for p, Initial residual = 0.00566274, Final residual = 0.000298042, No Iterations 3
time step continuity errors : sum local = 0.284408, global = -0.041547, cumulative = -3.62951
smoothSolver:  Solving for omega, Initial residual = 3.89751e-05, Final residual = 1.01287e-06, No Iterations 2
smoothSolver:  Solving for k, Initial residual = 0.0407112, Final residual = 0.000939174, No Iterations 2
ExecutionTime = 4.63 s  ClockTime = 5 s

Time = 51

smoothSolver:  Solving for Ux, Initial residual = 0.00382882, Final residual = 0.000309742, No Iterations 2
smoothSolver:  Solving for Uy, Initial residual = 0.0430838, Final residual = 0.00361224, No Iterations 2
GAMG:  Solving for p, Initial residual = 0.00642379, Final residual = 0.000479124, No Iterations 2
time step continuity errors : sum local = 0.419333, global = -0.0309693, cumulative = -3.66047
smoothSolver:  Solving for omega, Initial residual = 4.86956e-05, Final residual = 1.33029e-06, No Iterations 2
smoothSolver:  Solving for k, Initial residual = 0.0406138, Final residual = 0.000929184, No Iterations 2
ExecutionTime = 4.69 s  ClockTime = 5 s

Time = 52

smoothSolver:  Solving for Ux, Initial residual = 0.00428542, Final residual = 0.000348466, No Iterations 2
smoothSolver:  Solving for Uy, Initial residual = 0.0430695, Final residual = 0.00360258, No Iterations 2
GAMG:  Solving for p, Initial residual = 0.00696688, Final residual = 0.000364491, No Iterations 3
time step continuity errors : sum local = 0.289129, global = -0.0458282, cumulative = -3.7063
smoothSolver:  Solving for omega, Initial residual = 7.2137e-05, Final residual = 1.9214e-06, No Iterations 2
smoothSolver:  Solving for k, Initial residual = 0.0404354, Final residual = 0.000875233, No Iterations 2
ExecutionTime = 4.76 s  ClockTime = 5 s

Time = 53

smoothSolver:  Solving for Ux, Initial residual = 0.0040986, Final residual = 0.000330633, No Iterations 2
smoothSolver:  Solving for Uy, Initial residual = 0.0428597, Final residual = 0.00357785, No Iterations 2
GAMG:  Solving for p, Initial residual = 0.00790631, Final residual = 0.000675779, No Iterations 2
time step continuity errors : sum local = 0.488727, global = 0.024317, cumulative = -3.68199
smoothSolver:  Solving for omega, Initial residual = 6.02187e-05, Final residual = 1.59755e-06, No Iterations 2
smoothSolver:  Solving for k, Initial residual = 0.0389789, Final residual = 0.000922456, No Iterations 2
ExecutionTime = 4.82 s  ClockTime = 5 s

Time = 54

smoothSolver:  Solving for Ux, Initial residual = 0.00418294, Final residual = 0.000337421, No Iterations 2
smoothSolver:  Solving for Uy, Initial residual = 0.0427429, Final residual = 0.00356008, No Iterations 2
GAMG:  Solving for p, Initial residual = 0.00874345, Final residual = 0.000510061, No Iterations 3
time step continuity errors : sum local = 0.34179, global = -0.0576779, cumulative = -3.73966
smoothSolver:  Solving for omega, Initial residual = 5.86956e-05, Final residual = 1.68785e-06, No Iterations 2
smoothSolver:  Solving for k, Initial residual = 0.0380557, Final residual = 0.000849449, No Iterations 2
ExecutionTime = 4.89 s  ClockTime = 5 s

Time = 55

smoothSolver:  Solving for Ux, Initial residual = 0.00405469, Final residual = 0.000324276, No Iterations 2
smoothSolver:  Solving for Uy, Initial residual = 0.0425087, Final residual = 0.00353238, No Iterations 2
GAMG:  Solving for p, Initial residual = 0.00973125, Final residual = 0.000715635, No Iterations 2
time step continuity errors : sum local = 0.44326, global = 0.0540247, cumulative = -3.68564
smoothSolver:  Solving for omega, Initial residual = 5.15711e-05, Final residual = 1.41029e-06, No Iterations 2
smoothSolver:  Solving for k, Initial residual = 0.0357439, Final residual = 0.000860196, No Iterations 2
ExecutionTime = 4.94 s  ClockTime = 5 s

Time = 56

smoothSolver:  Solving for Ux, Initial residual = 0.00359561, Final residual = 0.00028501, No Iterations 2
smoothSolver:  Solving for Uy, Initial residual = 0.0422597, Final residual = 0.00350449, No Iterations 2
GAMG:  Solving for p, Initial residual = 0.0100318, Final residual = 0.000784689, No Iterations 3
time step continuity errors : sum local = 0.45036, global = -0.110371, cumulative = -3.79601
smoothSolver:  Solving for omega, Initial residual = 3.8046e-05, Final residual = 1.07962e-06, No Iterations 2
smoothSolver:  Solving for k, Initial residual = 0.0337891, Final residual = 0.000841126, No Iterations 2
ExecutionTime = 5.01 s  ClockTime = 5 s

Time = 57

smoothSolver:  Solving for Ux, Initial residual = 0.00435457, Final residual = 0.000348005, No Iterations 2
smoothSolver:  Solving for Uy, Initial residual = 0.0422206, Final residual = 0.00349047, No Iterations 2
GAMG:  Solving for p, Initial residual = 0.0129512, Final residual = 0.000952366, No Iterations 2
time step continuity errors : sum local = 0.463387, global = 0.071323, cumulative = -3.72469
smoothSolver:  Solving for omega, Initial residual = 6.46991e-05, Final residual = 1.82405e-06, No Iterations 2
smoothSolver:  Solving for k, Initial residual = 0.0315646, Final residual = 0.000764757, No Iterations 2
ExecutionTime = 5.06 s  ClockTime = 5 s

Time = 58

smoothSolver:  Solving for Ux, Initial residual = 0.00424636, Final residual = 0.000336194, No Iterations 2
smoothSolver:  Solving for Uy, Initial residual = 0.0420747, Final residual = 0.00346727, No Iterations 2
GAMG:  Solving for p, Initial residual = 0.0139607, Final residual = 0.0011153, No Iterations 3
time step continuity errors : sum local = 0.4954, global = -0.105011, cumulative = -3.8297
smoothSolver:  Solving for omega, Initial residual = 6.7218e-05, Final residual = 1.7932e-06, No Iterations 2
smoothSolver:  Solving for k, Initial residual = 0.0294643, Final residual = 0.000764177, No Iterations 2
ExecutionTime = 5.13 s  ClockTime = 5 s

Time = 59

smoothSolver:  Solving for Ux, Initial residual = 0.00406592, Final residual = 0.000322357, No Iterations 2
smoothSolver:  Solving for Uy, Initial residual = 0.0417903, Final residual = 0.00343368, No Iterations 2
GAMG:  Solving for p, Initial residual = 0.0175508, Final residual = 0.00116191, No Iterations 2
time step continuity errors : sum local = 0.431551, global = 0.0703635, cumulative = -3.75933
smoothSolver:  Solving for omega, Initial residual = 5.4624e-05, Final residual = 1.54286e-06, No Iterations 2
smoothSolver:  Solving for k, Initial residual = 0.0275293, Final residual = 0.000712224, No Iterations 2
ExecutionTime = 5.2 s  ClockTime = 5 s

Time = 60

smoothSolver:  Solving for Ux, Initial residual = 0.00447438, Final residual = 0.000355627, No Iterations 2
smoothSolver:  Solving for Uy, Initial residual = 0.0417018, Final residual = 0.00342021, No Iterations 2
GAMG:  Solving for p, Initial residual = 0.0180056, Final residual = 0.00151196, No Iterations 3
time step continuity errors : sum local = 0.532544, global = -0.0847273, cumulative = -3.84406
smoothSolver:  Solving for omega, Initial residual = 8.16074e-05, Final residual = 2.07937e-06, No Iterations 2
smoothSolver:  Solving for k, Initial residual = 0.0255748, Final residual = 0.000686873, No Iterations 2
ExecutionTime = 5.26 s  ClockTime = 5 s

Time = 61

smoothSolver:  Solving for Ux, Initial residual = 0.0040359, Final residual = 0.000318013, No Iterations 2
smoothSolver:  Solving for Uy, Initial residual = 0.0414158, Final residual = 0.00338403, No Iterations 2
GAMG:  Solving for p, Initial residual = 0.0233098, Final residual = 0.00134579, No Iterations 2
time step continuity errors : sum local = 0.383149, global = 0.0586645, cumulative = -3.7854
smoothSolver:  Solving for omega, Initial residual = 5.81503e-05, Final residual = 1.60293e-06, No Iterations 2
smoothSolver:  Solving for k, Initial residual = 0.0240629, Final residual = 0.000661962, No Iterations 2
ExecutionTime = 5.32 s  ClockTime = 5 s

Time = 62

smoothSolver:  Solving for Ux, Initial residual = 0.00408016, Final residual = 0.000321033, No Iterations 2
smoothSolver:  Solving for Uy, Initial residual = 0.0412771, Final residual = 0.00336504, No Iterations 2
GAMG:  Solving for p, Initial residual = 0.023704, Final residual = 0.00186023, No Iterations 3
time step continuity errors : sum local = 0.510635, global = -0.000389475, cumulative = -3.78579
smoothSolver:  Solving for omega, Initial residual = 5.62772e-05, Final residual = 1.50021e-06, No Iterations 2
smoothSolver:  Solving for k, Initial residual = 0.0221398, Final residual = 0.000624825, No Iterations 2
ExecutionTime = 5.39 s  ClockTime = 5 s

Time = 63

smoothSolver:  Solving for Ux, Initial residual = 0.00391517, Final residual = 0.000308494, No Iterations 2
smoothSolver:  Solving for Uy, Initial residual = 0.0411456, Final residual = 0.0033453, No Iterations 2
GAMG:  Solving for p, Initial residual = 0.0322951, Final residual = 0.00161116, No Iterations 2
time step continuity errors : sum local = 0.347807, global = 0.0731443, cumulative = -3.71264
smoothSolver:  Solving for omega, Initial residual = 5.55685e-05, Final residual = 1.47913e-06, No Iterations 2
smoothSolver:  Solving for k, Initial residual = 0.0208138, Final residual = 0.000594255, No Iterations 2
ExecutionTime = 5.45 s  ClockTime = 6 s

Time = 64

smoothSolver:  Solving for Ux, Initial residual = 0.00451004, Final residual = 0.000359324, No Iterations 2
smoothSolver:  Solving for Uy, Initial residual = 0.0409552, Final residual = 0.0033271, No Iterations 2
GAMG:  Solving for p, Initial residual = 0.0319142, Final residual = 0.00145847, No Iterations 3
time step continuity errors : sum local = 0.305888, global = 0.0696105, cumulative = -3.64303
smoothSolver:  Solving for omega, Initial residual = 9.10955e-05, Final residual = 2.26812e-06, No Iterations 2
smoothSolver:  Solving for k, Initial residual = 0.019355, Final residual = 0.000581444, No Iterations 2
ExecutionTime = 5.51 s  ClockTime = 6 s

Time = 65

smoothSolver:  Solving for Ux, Initial residual = 0.00349947, Final residual = 0.000274745, No Iterations 2
smoothSolver:  Solving for Uy, Initial residual = 0.0407724, Final residual = 0.00330831, No Iterations 2
GAMG:  Solving for p, Initial residual = 0.0386469, Final residual = 0.00385794, No Iterations 2
time step continuity errors : sum local = 0.678223, global = -0.0271912, cumulative = -3.67022
smoothSolver:  Solving for omega, Initial residual = 4.6898e-05, Final residual = 1.15471e-06, No Iterations 2
smoothSolver:  Solving for k, Initial residual = 0.0179635, Final residual = 0.000560462, No Iterations 2
ExecutionTime = 5.57 s  ClockTime = 6 s

Time = 66

smoothSolver:  Solving for Ux, Initial residual = 0.00411455, Final residual = 0.000329761, No Iterations 2
smoothSolver:  Solving for Uy, Initial residual = 0.0408619, Final residual = 0.0033163, No Iterations 2
GAMG:  Solving for p, Initial residual = 0.0481059, Final residual = 0.00335969, No Iterations 2
time step continuity errors : sum local = 0.484086, global = 0.136877, cumulative = -3.53335
smoothSolver:  Solving for omega, Initial residual = 7.88309e-05, Final residual = 1.96086e-06, No Iterations 2
smoothSolver:  Solving for k, Initial residual = 0.0166837, Final residual = 0.000519548, No Iterations 2
ExecutionTime = 5.63 s  ClockTime = 6 s

Time = 67

smoothSolver:  Solving for Ux, Initial residual = 0.00409215, Final residual = 0.000330111, No Iterations 2
smoothSolver:  Solving for Uy, Initial residual = 0.0403839, Final residual = 0.00327234, No Iterations 2
GAMG:  Solving for p, Initial residual = 0.0523498, Final residual = 0.00478228, No Iterations 2
time step continuity errors : sum local = 0.634969, global = -0.0546507, cumulative = -3.588
smoothSolver:  Solving for omega, Initial residual = 8.79189e-05, Final residual = 2.13553e-06, No Iterations 2
smoothSolver:  Solving for k, Initial residual = 0.0155095, Final residual = 0.000501714, No Iterations 2
ExecutionTime = 5.69 s  ClockTime = 6 s

Time = 68

smoothSolver:  Solving for Ux, Initial residual = 0.00367779, Final residual = 0.000296826, No Iterations 2
smoothSolver:  Solving for Uy, Initial residual = 0.040363, Final residual = 0.00328436, No Iterations 2
GAMG:  Solving for p, Initial residual = 0.0684103, Final residual = 0.00412364, No Iterations 3
time step continuity errors : sum local = 0.438877, global = -0.00637206, cumulative = -3.59437
smoothSolver:  Solving for omega, Initial residual = 6.05309e-05, Final residual = 1.51458e-06, No Iterations 2
smoothSolver:  Solving for k, Initial residual = 0.0146299, Final residual = 0.000479749, No Iterations 2
ExecutionTime = 5.76 s  ClockTime = 6 s

Time = 69

smoothSolver:  Solving for Ux, Initial residual = 0.00344334, Final residual = 0.000279082, No Iterations 2
smoothSolver:  Solving for Uy, Initial residual = 0.0403192, Final residual = 0.00328455, No Iterations 2
GAMG:  Solving for p, Initial residual = 0.12741, Final residual = 0.00616215, No Iterations 2
time step continuity errors : sum local = 0.339334, global = 0.0297719, cumulative = -3.5646
smoothSolver:  Solving for omega, Initial residual = 5.89574e-05, Final residual = 1.38758e-06, No Iterations 2
smoothSolver:  Solving for k, Initial residual = 0.0139015, Final residual = 0.000450766, No Iterations 2
ExecutionTime = 5.82 s  ClockTime = 6 s

Time = 70

smoothSolver:  Solving for Ux, Initial residual = 0.0033559, Final residual = 0.000275909, No Iterations 2
smoothSolver:  Solving for Uy, Initial residual = 0.0399547, Final residual = 0.00327834, No Iterations 2
GAMG:  Solving for p, Initial residual = 0.132301, Final residual = 0.0105633, No Iterations 2
time step continuity errors : sum local = 0.548311, global = -0.0425664, cumulative = -3.60716
smoothSolver:  Solving for omega, Initial residual = 6.04209e-05, Final residual = 1.48112e-06, No Iterations 2
smoothSolver:  Solving for k, Initial residual = 0.0132349, Final residual = 0.000430661, No Iterations 2
ExecutionTime = 5.88 s  ClockTime = 6 s

Time = 71

smoothSolver:  Solving for Ux, Initial residual = 0.00341716, Final residual = 0.000283625, No Iterations 2
smoothSolver:  Solving for Uy, Initial residual = 0.039653, Final residual = 0.00326665, No Iterations 2
GAMG:  Solving for p, Initial residual = 0.15236, Final residual = 0.0145571, No Iterations 2
time step continuity errors : sum local = 0.671196, global = 0.0103703, cumulative = -3.59679
smoothSolver:  Solving for omega, Initial residual = 7.0343e-05, Final residual = 1.77152e-06, No Iterations 2
smoothSolver:  Solving for k, Initial residual = 0.0127875, Final residual = 0.000427713, No Iterations 2
ExecutionTime = 5.95 s  ClockTime = 6 s

Time = 72

smoothSolver:  Solving for Ux, Initial residual = 0.00310994, Final residual = 0.000255923, No Iterations 2
smoothSolver:  Solving for Uy, Initial residual = 0.0393685, Final residual = 0.00325983, No Iterations 2
GAMG:  Solving for p, Initial residual = 0.0858576, Final residual = 0.00556121, No Iterations 2
time step continuity errors : sum local = 0.457746, global = -0.0130309, cumulative = -3.60982
smoothSolver:  Solving for omega, Initial residual = 5.05773e-05, Final residual = 1.27926e-06, No Iterations 2
smoothSolver:  Solving for k, Initial residual = 0.0123822, Final residual = 0.000402361, No Iterations 2
ExecutionTime = 6.01 s  ClockTime = 6 s

Time = 73

smoothSolver:  Solving for Ux, Initial residual = 0.00288266, Final residual = 0.000238763, No Iterations 2
smoothSolver:  Solving for Uy, Initial residual = 0.0386567, Final residual = 0.00320163, No Iterations 2
GAMG:  Solving for p, Initial residual = 0.0636808, Final residual = 0.00454647, No Iterations 2
time step continuity errors : sum local = 0.501674, global = 0.0484832, cumulative = -3.56134
smoothSolver:  Solving for omega, Initial residual = 5.41258e-05, Final residual = 1.34901e-06, No Iterations 2
smoothSolver:  Solving for k, Initial residual = 0.0121153, Final residual = 0.000400578, No Iterations 2
ExecutionTime = 6.08 s  ClockTime = 6 s

Time = 74

smoothSolver:  Solving for Ux, Initial residual = 0.00288299, Final residual = 0.00024059, No Iterations 2
smoothSolver:  Solving for Uy, Initial residual = 0.0381997, Final residual = 0.00318097, No Iterations 2
GAMG:  Solving for p, Initial residual = 0.0583775, Final residual = 0.00548708, No Iterations 2
time step continuity errors : sum local = 0.690922, global = -0.0383335, cumulative = -3.59967
smoothSolver:  Solving for omega, Initial residual = 5.82736e-05, Final residual = 1.29448e-06, No Iterations 2
smoothSolver:  Solving for k, Initial residual = 0.0136703, Final residual = 0.000402869, No Iterations 2
ExecutionTime = 6.14 s  ClockTime = 6 s

Time = 75

smoothSolver:  Solving for Ux, Initial residual = 0.0030858, Final residual = 0.000259201, No Iterations 2
smoothSolver:  Solving for Uy, Initial residual = 0.0376514, Final residual = 0.00312214, No Iterations 2
GAMG:  Solving for p, Initial residual = 0.0458917, Final residual = 0.00311637, No Iterations 2
time step continuity errors : sum local = 0.48753, global = 0.0839755, cumulative = -3.5157
smoothSolver:  Solving for omega, Initial residual = 7.97426e-05, Final residual = 1.79816e-06, No Iterations 2
smoothSolver:  Solving for k, Initial residual = 0.0143696, Final residual = 0.000384116, No Iterations 2
ExecutionTime = 6.2 s  ClockTime = 6 s

Time = 76

smoothSolver:  Solving for Ux, Initial residual = 0.00281851, Final residual = 0.000236013, No Iterations 2
smoothSolver:  Solving for Uy, Initial residual = 0.0372187, Final residual = 0.00307794, No Iterations 2
GAMG:  Solving for p, Initial residual = 0.0453984, Final residual = 0.00373434, No Iterations 2
time step continuity errors : sum local = 0.603548, global = -0.0169586, cumulative = -3.53266
smoothSolver:  Solving for omega, Initial residual = 6.3047e-05, Final residual = 1.54146e-06, No Iterations 2
smoothSolver:  Solving for k, Initial residual = 0.0111205, Final residual = 0.000367653, No Iterations 2
ExecutionTime = 6.27 s  ClockTime = 6 s

Time = 77

smoothSolver:  Solving for Ux, Initial residual = 0.00264717, Final residual = 0.000219607, No Iterations 2
smoothSolver:  Solving for Uy, Initial residual = 0.0363412, Final residual = 0.00299248, No Iterations 2
GAMG:  Solving for p, Initial residual = 0.0388232, Final residual = 0.00302667, No Iterations 2
time step continuity errors : sum local = 0.554953, global = 0.033573, cumulative = -3.49908
smoothSolver:  Solving for omega, Initial residual = 5.24318e-05, Final residual = 1.36936e-06, No Iterations 2
smoothSolver:  Solving for k, Initial residual = 0.01102, Final residual = 0.000362869, No Iterations 2
ExecutionTime = 6.33 s  ClockTime = 6 s

Time = 78

smoothSolver:  Solving for Ux, Initial residual = 0.00289814, Final residual = 0.000242024, No Iterations 2
smoothSolver:  Solving for Uy, Initial residual = 0.0363545, Final residual = 0.0029835, No Iterations 2
GAMG:  Solving for p, Initial residual = 0.034185, Final residual = 0.00235298, No Iterations 2
time step continuity errors : sum local = 0.482361, global = 0.0262701, cumulative = -3.47281
smoothSolver:  Solving for omega, Initial residual = 6.79443e-05, Final residual = 1.84494e-06, No Iterations 2
smoothSolver:  Solving for k, Initial residual = 0.0111395, Final residual = 0.000359958, No Iterations 2
ExecutionTime = 6.39 s  ClockTime = 7 s

Time = 79

smoothSolver:  Solving for Ux, Initial residual = 0.00240902, Final residual = 0.00019827, No Iterations 2
smoothSolver:  Solving for Uy, Initial residual = 0.0351973, Final residual = 0.0028675, No Iterations 2
GAMG:  Solving for p, Initial residual = 0.0307744, Final residual = 0.00211497, No Iterations 2
time step continuity errors : sum local = 0.489469, global = 0.0456749, cumulative = -3.42714
smoothSolver:  Solving for omega, Initial residual = 4.39603e-05, Final residual = 1.21969e-06, No Iterations 2
smoothSolver:  Solving for k, Initial residual = 0.0107425, Final residual = 0.000354659, No Iterations 2
ExecutionTime = 6.45 s  ClockTime = 7 s

Time = 80

smoothSolver:  Solving for Ux, Initial residual = 0.00269054, Final residual = 0.000224123, No Iterations 2
smoothSolver:  Solving for Uy, Initial residual = 0.0351969, Final residual = 0.00286102, No Iterations 2
GAMG:  Solving for p, Initial residual = 0.0282937, Final residual = 0.002215, No Iterations 2
time step continuity errors : sum local = 0.542777, global = 0.0397472, cumulative = -3.38739
smoothSolver:  Solving for omega, Initial residual = 6.90858e-05, Final residual = 1.73578e-06, No Iterations 2
smoothSolver:  Solving for k, Initial residual = 0.01071, Final residual = 0.000355379, No Iterations 2
ExecutionTime = 6.51 s  ClockTime = 7 s

Time = 81

smoothSolver:  Solving for Ux, Initial residual = 0.00226661, Final residual = 0.000185499, No Iterations 2
smoothSolver:  Solving for Uy, Initial residual = 0.0342225, Final residual = 0.00276645, No Iterations 2
GAMG:  Solving for p, Initial residual = 0.0253422, Final residual = 0.00177571, No Iterations 2
time step continuity errors : sum local = 0.468588, global = 0.0563132, cumulative = -3.33108
smoothSolver:  Solving for omega, Initial residual = 4.21088e-05, Final residual = 1.08706e-06, No Iterations 2
smoothSolver:  Solving for k, Initial residual = 0.0107178, Final residual = 0.000348215, No Iterations 2
ExecutionTime = 6.57 s  ClockTime = 7 s

Time = 82

smoothSolver:  Solving for Ux, Initial residual = 0.00255588, Final residual = 0.000213115, No Iterations 2
smoothSolver:  Solving for Uy, Initial residual = 0.0343341, Final residual = 0.00276641, No Iterations 2
GAMG:  Solving for p, Initial residual = 0.0272639, Final residual = 0.00184093, No Iterations 2
time step continuity errors : sum local = 0.474613, global = 0.0551143, cumulative = -3.27597
smoothSolver:  Solving for omega, Initial residual = 6.58556e-05, Final residual = 1.72701e-06, No Iterations 2
smoothSolver:  Solving for k, Initial residual = 0.0107406, Final residual = 0.000352265, No Iterations 2
ExecutionTime = 6.63 s  ClockTime = 7 s

Time = 83

smoothSolver:  Solving for Ux, Initial residual = 0.00255069, Final residual = 0.000213032, No Iterations 2
smoothSolver:  Solving for Uy, Initial residual = 0.0339164, Final residual = 0.00271783, No Iterations 2
GAMG:  Solving for p, Initial residual = 0.0267402, Final residual = 0.00193754, No Iterations 2
time step continuity errors : sum local = 0.496362, global = 0.0439843, cumulative = -3.23198
smoothSolver:  Solving for omega, Initial residual = 6.59249e-05, Final residual = 1.77879e-06, No Iterations 2
smoothSolver:  Solving for k, Initial residual = 0.010706, Final residual = 0.000349676, No Iterations 2
ExecutionTime = 6.69 s  ClockTime = 7 s

Time = 84

smoothSolver:  Solving for Ux, Initial residual = 0.0021037, Final residual = 0.000173351, No Iterations 2
smoothSolver:  Solving for Uy, Initial residual = 0.0332206, Final residual = 0.00265907, No Iterations 2
GAMG:  Solving for p, Initial residual = 0.0271222, Final residual = 0.00187566, No Iterations 2
time step continuity errors : sum local = 0.481215, global = 0.0375339, cumulative = -3.19445
smoothSolver:  Solving for omega, Initial residual = 3.65727e-05, Final residual = 1.02651e-06, No Iterations 2
smoothSolver:  Solving for k, Initial residual = 0.01073, Final residual = 0.000349589, No Iterations 2
ExecutionTime = 6.75 s  ClockTime = 7 s

Time = 85

smoothSolver:  Solving for Ux, Initial residual = 0.00241415, Final residual = 0.000202592, No Iterations 2
smoothSolver:  Solving for Uy, Initial residual = 0.0333424, Final residual = 0.00265676, No Iterations 2
GAMG:  Solving for p, Initial residual = 0.0270806, Final residual = 0.00175902, No Iterations 2
time step continuity errors : sum local = 0.452094, global = 0.0293368, cumulative = -3.16511
smoothSolver:  Solving for omega, Initial residual = 6.31315e-05, Final residual = 1.66888e-06, No Iterations 2
smoothSolver:  Solving for k, Initial residual = 0.0109343, Final residual = 0.000352353, No Iterations 2
ExecutionTime = 6.81 s  ClockTime = 7 s

Time = 86

smoothSolver:  Solving for Ux, Initial residual = 0.0021221, Final residual = 0.0001762, No Iterations 2
smoothSolver:  Solving for Uy, Initial residual = 0.032864, Final residual = 0.0026175, No Iterations 2
GAMG:  Solving for p, Initial residual = 0.027076, Final residual = 0.00173199, No Iterations 2
time step continuity errors : sum local = 0.443431, global = 0.0153154, cumulative = -3.14979
smoothSolver:  Solving for omega, Initial residual = 4.24916e-05, Final residual = 1.10448e-06, No Iterations 2
smoothSolver:  Solving for k, Initial residual = 0.0109926, Final residual = 0.00035416, No Iterations 2
ExecutionTime = 6.87 s  ClockTime = 7 s

Time = 87

smoothSolver:  Solving for Ux, Initial residual = 0.00222427, Final residual = 0.000186881, No Iterations 2
smoothSolver:  Solving for Uy, Initial residual = 0.0328654, Final residual = 0.00260728, No Iterations 2
GAMG:  Solving for p, Initial residual = 0.0267097, Final residual = 0.0016329, No Iterations 2
time step continuity errors : sum local = 0.417372, global = 0.00544066, cumulative = -3.14435
smoothSolver:  Solving for omega, Initial residual = 5.08428e-05, Final residual = 1.32448e-06, No Iterations 2
smoothSolver:  Solving for k, Initial residual = 0.0109551, Final residual = 0.000355435, No Iterations 2
ExecutionTime = 6.94 s  ClockTime = 7 s

Time = 88

smoothSolver:  Solving for Ux, Initial residual = 0.00237621, Final residual = 0.00020112, No Iterations 2
smoothSolver:  Solving for Uy, Initial residual = 0.0329726, Final residual = 0.00261638, No Iterations 2
GAMG:  Solving for p, Initial residual = 0.0278319, Final residual = 0.00170156, No Iterations 2
time step continuity errors : sum local = 0.433463, global = -0.0109908, cumulative = -3.15534
smoothSolver:  Solving for omega, Initial residual = 6.83339e-05, Final residual = 1.7158e-06, No Iterations 2
smoothSolver:  Solving for k, Initial residual = 0.0111495, Final residual = 0.00035839, No Iterations 2
ExecutionTime = 7 s  ClockTime = 7 s

Time = 89

smoothSolver:  Solving for Ux, Initial residual = 0.00207902, Final residual = 0.000173859, No Iterations 2
smoothSolver:  Solving for Uy, Initial residual = 0.0326034, Final residual = 0.0025733, No Iterations 2
GAMG:  Solving for p, Initial residual = 0.0261706, Final residual = 0.00166065, No Iterations 2
time step continuity errors : sum local = 0.420546, global = -0.0287672, cumulative = -3.18411
smoothSolver:  Solving for omega, Initial residual = 4.31905e-05, Final residual = 1.16174e-06, No Iterations 2
smoothSolver:  Solving for k, Initial residual = 0.0112076, Final residual = 0.000362346, No Iterations 2
ExecutionTime = 7.07 s  ClockTime = 7 s

Time = 90

smoothSolver:  Solving for Ux, Initial residual = 0.00197206, Final residual = 0.000164144, No Iterations 2
smoothSolver:  Solving for Uy, Initial residual = 0.0324648, Final residual = 0.00256347, No Iterations 2
GAMG:  Solving for p, Initial residual = 0.0267853, Final residual = 0.00161317, No Iterations 2
time step continuity errors : sum local = 0.408576, global = -0.0452167, cumulative = -3.22933
smoothSolver:  Solving for omega, Initial residual = 4.40148e-05, Final residual = 1.14856e-06, No Iterations 2
smoothSolver:  Solving for k, Initial residual = 0.011244, Final residual = 0.000361636, No Iterations 2
ExecutionTime = 7.13 s  ClockTime = 7 s

Time = 91

smoothSolver:  Solving for Ux, Initial residual = 0.00233245, Final residual = 0.00019851, No Iterations 2
smoothSolver:  Solving for Uy, Initial residual = 0.0329758, Final residual = 0.00258623, No Iterations 2
GAMG:  Solving for p, Initial residual = 0.0275216, Final residual = 0.00150368, No Iterations 2
time step continuity errors : sum local = 0.37765, global = -0.0519591, cumulative = -3.28129
smoothSolver:  Solving for omega, Initial residual = 6.79667e-05, Final residual = 1.73539e-06, No Iterations 2
smoothSolver:  Solving for k, Initial residual = 0.0113238, Final residual = 0.000361832, No Iterations 2
ExecutionTime = 7.19 s  ClockTime = 7 s

Time = 92

smoothSolver:  Solving for Ux, Initial residual = 0.00229998, Final residual = 0.000195959, No Iterations 2
smoothSolver:  Solving for Uy, Initial residual = 0.0329141, Final residual = 0.00258385, No Iterations 2
GAMG:  Solving for p, Initial residual = 0.026163, Final residual = 0.00155998, No Iterations 2
time step continuity errors : sum local = 0.387397, global = -0.0554005, cumulative = -3.33669
smoothSolver:  Solving for omega, Initial residual = 6.87935e-05, Final residual = 1.7208e-06, No Iterations 2
smoothSolver:  Solving for k, Initial residual = 0.0113827, Final residual = 0.000368982, No Iterations 2
ExecutionTime = 7.25 s  ClockTime = 7 s

Time = 93

smoothSolver:  Solving for Ux, Initial residual = 0.00223401, Final residual = 0.000190066, No Iterations 2
smoothSolver:  Solving for Uy, Initial residual = 0.0328839, Final residual = 0.00256673, No Iterations 2
GAMG:  Solving for p, Initial residual = 0.0285567, Final residual = 0.0015029, No Iterations 2
time step continuity errors : sum local = 0.365297, global = -0.0548409, cumulative = -3.39153
smoothSolver:  Solving for omega, Initial residual = 5.92849e-05, Final residual = 1.56407e-06, No Iterations 2
smoothSolver:  Solving for k, Initial residual = 0.0114409, Final residual = 0.000366875, No Iterations 2
ExecutionTime = 7.31 s  ClockTime = 7 s

Time = 94

smoothSolver:  Solving for Ux, Initial residual = 0.00216584, Final residual = 0.000183413, No Iterations 2
smoothSolver:  Solving for Uy, Initial residual = 0.0327747, Final residual = 0.00255263, No Iterations 2
GAMG:  Solving for p, Initial residual = 0.0290884, Final residual = 0.00159481, No Iterations 2
time step continuity errors : sum local = 0.384341, global = -0.0561657, cumulative = -3.44769
smoothSolver:  Solving for omega, Initial residual = 5.73268e-05, Final residual = 1.49872e-06, No Iterations 2
smoothSolver:  Solving for k, Initial residual = 0.0114907, Final residual = 0.000366052, No Iterations 2
ExecutionTime = 7.37 s  ClockTime = 8 s

Time = 95

smoothSolver:  Solving for Ux, Initial residual = 0.00218282, Final residual = 0.000186214, No Iterations 2
smoothSolver:  Solving for Uy, Initial residual = 0.0328026, Final residual = 0.00254988, No Iterations 2
GAMG:  Solving for p, Initial residual = 0.0297675, Final residual = 0.00171981, No Iterations 2
time step continuity errors : sum local = 0.411799, global = -0.0597145, cumulative = -3.50741
smoothSolver:  Solving for omega, Initial residual = 6.15513e-05, Final residual = 1.62328e-06, No Iterations 2
smoothSolver:  Solving for k, Initial residual = 0.0115519, Final residual = 0.000369652, No Iterations 2
ExecutionTime = 7.44 s  ClockTime = 8 s

Time = 96

smoothSolver:  Solving for Ux, Initial residual = 0.00169952, Final residual = 0.000139219, No Iterations 2
smoothSolver:  Solving for Uy, Initial residual = 0.0321227, Final residual = 0.00248804, No Iterations 2
GAMG:  Solving for p, Initial residual = 0.0280717, Final residual = 0.0017409, No Iterations 2
time step continuity errors : sum local = 0.4135, global = -0.0652009, cumulative = -3.57261
smoothSolver:  Solving for omega, Initial residual = 3.27744e-05, Final residual = 7.72902e-07, No Iterations 2
smoothSolver:  Solving for k, Initial residual = 0.0115125, Final residual = 0.00036394, No Iterations 2
ExecutionTime = 7.5 s  ClockTime = 8 s

Time = 97

smoothSolver:  Solving for Ux, Initial residual = 0.00207302, Final residual = 0.000176886, No Iterations 2
smoothSolver:  Solving for Uy, Initial residual = 0.0326788, Final residual = 0.00252759, No Iterations 2
GAMG:  Solving for p, Initial residual = 0.0322744, Final residual = 0.00179161, No Iterations 2
time step continuity errors : sum local = 0.423568, global = -0.0700868, cumulative = -3.6427
smoothSolver:  Solving for omega, Initial residual = 5.92996e-05, Final residual = 1.38294e-06, No Iterations 2
smoothSolver:  Solving for k, Initial residual = 0.0115351, Final residual = 0.000370378, No Iterations 2
ExecutionTime = 7.56 s  ClockTime = 8 s

Time = 98

smoothSolver:  Solving for Ux, Initial residual = 0.00222336, Final residual = 0.000190743, No Iterations 2
smoothSolver:  Solving for Uy, Initial residual = 0.0328009, Final residual = 0.00252792, No Iterations 2
GAMG:  Solving for p, Initial residual = 0.0295107, Final residual = 0.00187605, No Iterations 2
time step continuity errors : sum local = 0.435625, global = -0.0803053, cumulative = -3.723
smoothSolver:  Solving for omega, Initial residual = 7.50357e-05, Final residual = 1.77938e-06, No Iterations 2
smoothSolver:  Solving for k, Initial residual = 0.0116248, Final residual = 0.000373733, No Iterations 2
ExecutionTime = 7.62 s  ClockTime = 8 s

Time = 99

smoothSolver:  Solving for Ux, Initial residual = 0.00219816, Final residual = 0.000188389, No Iterations 2
smoothSolver:  Solving for Uy, Initial residual = 0.0327503, Final residual = 0.00252621, No Iterations 2
GAMG:  Solving for p, Initial residual = 0.031144, Final residual = 0.00198122, No Iterations 2
time step continuity errors : sum local = 0.450613, global = -0.0833409, cumulative = -3.80634
smoothSolver:  Solving for omega, Initial residual = 6.27178e-05, Final residual = 1.63509e-06, No Iterations 2
smoothSolver:  Solving for k, Initial residual = 0.0115859, Final residual = 0.000375012, No Iterations 2
ExecutionTime = 7.68 s  ClockTime = 8 s

Time = 100

smoothSolver:  Solving for Ux, Initial residual = 0.00195135, Final residual = 0.000165691, No Iterations 2
smoothSolver:  Solving for Uy, Initial residual = 0.0324602, Final residual = 0.00249115, No Iterations 2
GAMG:  Solving for p, Initial residual = 0.0335485, Final residual = 0.00183989, No Iterations 2
time step continuity errors : sum local = 0.402046, global = -0.0839213, cumulative = -3.89026
smoothSolver:  Solving for omega, Initial residual = 5.2217e-05, Final residual = 1.32401e-06, No Iterations 2
smoothSolver:  Solving for k, Initial residual = 0.0115361, Final residual = 0.000372857, No Iterations 2
ExecutionTime = 7.86 s  ClockTime = 8 s

    functionObjects::turbulenceFields stressComponents writing field: turbulenceProperties:devReff

    functionObjects::pressure pressureCoefficient writing field: cp
writeCellCentres writeCellCentres write:
    writing cell-centres field C to 100
    Writing the x component field of the cell-centres Cx to 100
    Writing the y component field of the cell-centres Cy to 100
    Writing the z component field of the cell-centres Cz to 100
wallShearStress wallShearStress write:
    writing field wallShearStress
    min/max(lowerWallStartup) = (-1.8668 -0.000821794 0), (-0.357294 0.0789504 0)
    min/max(upperWallStartup) = (-785.946 -0.696504 0), (1.68147 10.5302 0)
    min/max(upperWall) = (-466.941 -10.7571 0), (12.9187 0.571204 0)
    min/max(verticalWall) = (-0.0526409 -0.245732 0), (7.79476 22.0157 0)
    min/max(lowerWall) = (-4.52904 -0.511741 0), (2.40228 0.972681 0)
yPlus yPlus write:
    writing field yPlus
    patch lowerWallStartup y+ : min = 0.351707, max = 0.803517, average = 0.593623
    patch upperWallStartup y+ : min = 0.0589368, max = 8.25035, average = 0.647919
    patch upperWall y+ : min = 0.0630576, max = 6.35958, average = 0.543776
    patch verticalWall y+ : min = 0.10384, max = 7.88815, average = 3.62686
    patch lowerWall y+ : min = 0.0540042, max = 2.35873, average = 0.495925
Time = 101

smoothSolver:  Solving for Ux, Initial residual = 0.00187763, Final residual = 0.000158702, No Iterations 2
smoothSolver:  Solving for Uy, Initial residual = 0.0323162, Final residual = 0.00247837, No Iterations 2
GAMG:  Solving for p, Initial residual = 0.0330626, Final residual = 0.00192936, No Iterations 2
time step continuity errors : sum local = 0.405861, global = -0.0857264, cumulative = -3.97599
smoothSolver:  Solving for omega, Initial residual = 3.93949e-05, Final residual = 1.03686e-06, No Iterations 2
smoothSolver:  Solving for k, Initial residual = 0.0115142, Final residual = 0.000375154, No Iterations 2
ExecutionTime = 8.15 s  ClockTime = 8 s

Time = 102

smoothSolver:  Solving for Ux, Initial residual = 0.00225536, Final residual = 0.000193643, No Iterations 2
smoothSolver:  Solving for Uy, Initial residual = 0.0326572, Final residual = 0.002496, No Iterations 2
GAMG:  Solving for p, Initial residual = 0.0371896, Final residual = 0.00181926, No Iterations 2
time step continuity errors : sum local = 0.364848, global = -0.0822551, cumulative = -4.05825
smoothSolver:  Solving for omega, Initial residual = 7.42698e-05, Final residual = 1.84804e-06, No Iterations 2
smoothSolver:  Solving for k, Initial residual = 0.0114706, Final residual = 0.000378343, No Iterations 2
ExecutionTime = 8.23 s  ClockTime = 8 s

Time = 103

smoothSolver:  Solving for Ux, Initial residual = 0.00216725, Final residual = 0.000185693, No Iterations 2
smoothSolver:  Solving for Uy, Initial residual = 0.032504, Final residual = 0.00248256, No Iterations 2
GAMG:  Solving for p, Initial residual = 0.0384536, Final residual = 0.00195265, No Iterations 2
time step continuity errors : sum local = 0.376104, global = -0.09301, cumulative = -4.15126
smoothSolver:  Solving for omega, Initial residual = 6.22753e-05, Final residual = 1.64119e-06, No Iterations 2
smoothSolver:  Solving for k, Initial residual = 0.0114861, Final residual = 0.000372929, No Iterations 2
ExecutionTime = 8.31 s  ClockTime = 9 s

Time = 104

smoothSolver:  Solving for Ux, Initial residual = 0.00202567, Final residual = 0.000173513, No Iterations 2
smoothSolver:  Solving for Uy, Initial residual = 0.0323991, Final residual = 0.00247675, No Iterations 2
GAMG:  Solving for p, Initial residual = 0.0426717, Final residual = 0.00235303, No Iterations 2
time step continuity errors : sum local = 0.441027, global = -0.101671, cumulative = -4.25293
smoothSolver:  Solving for omega, Initial residual = 5.41116e-05, Final residual = 1.42436e-06, No Iterations 2
smoothSolver:  Solving for k, Initial residual = 0.0114205, Final residual = 0.000373669, No Iterations 2
ExecutionTime = 8.38 s  ClockTime = 7 s

Time = 105

smoothSolver:  Solving for Ux, Initial residual = 0.00224822, Final residual = 0.000193959, No Iterations 2
smoothSolver:  Solving for Uy, Initial residual = 0.0325443, Final residual = 0.00247942, No Iterations 2
GAMG:  Solving for p, Initial residual = 0.0430095, Final residual = 0.00233886, No Iterations 2
time step continuity errors : sum local = 0.409755, global = -0.0925422, cumulative = -4.34547
smoothSolver:  Solving for omega, Initial residual = 8.43889e-05, Final residual = 2.0866e-06, No Iterations 2
smoothSolver:  Solving for k, Initial residual = 0.0114311, Final residual = 0.000370477, No Iterations 2
ExecutionTime = 8.46 s  ClockTime = 7 s

Time = 106

smoothSolver:  Solving for Ux, Initial residual = 0.00215698, Final residual = 0.000185252, No Iterations 2
smoothSolver:  Solving for Uy, Initial residual = 0.0325191, Final residual = 0.00247386, No Iterations 2
GAMG:  Solving for p, Initial residual = 0.0520231, Final residual = 0.00240355, No Iterations 2
time step continuity errors : sum local = 0.394066, global = -0.106602, cumulative = -4.45207
smoothSolver:  Solving for omega, Initial residual = 7.10638e-05, Final residual = 1.81482e-06, No Iterations 2
smoothSolver:  Solving for k, Initial residual = 0.0114487, Final residual = 0.00037712, No Iterations 2
ExecutionTime = 8.53 s  ClockTime = 7 s

Time = 107

smoothSolver:  Solving for Ux, Initial residual = 0.00235495, Final residual = 0.000203339, No Iterations 2
smoothSolver:  Solving for Uy, Initial residual = 0.0325089, Final residual = 0.0024712, No Iterations 2
GAMG:  Solving for p, Initial residual = 0.0508019, Final residual = 0.00284175, No Iterations 2
time step continuity errors : sum local = 0.436512, global = -0.0971024, cumulative = -4.54917
smoothSolver:  Solving for omega, Initial residual = 9.79621e-05, Final residual = 2.50109e-06, No Iterations 2
smoothSolver:  Solving for k, Initial residual = 0.011425, Final residual = 0.000381489, No Iterations 2
ExecutionTime = 8.59 s  ClockTime = 7 s

Time = 108

smoothSolver:  Solving for Ux, Initial residual = 0.00220635, Final residual = 0.000188395, No Iterations 2
smoothSolver:  Solving for Uy, Initial residual = 0.0324372, Final residual = 0.00246863, No Iterations 2
GAMG:  Solving for p, Initial residual = 0.0581534, Final residual = 0.0029057, No Iterations 2
time step continuity errors : sum local = 0.417168, global = -0.0887173, cumulative = -4.63789
smoothSolver:  Solving for omega, Initial residual = 7.63753e-05, Final residual = 1.9635e-06, No Iterations 2
smoothSolver:  Solving for k, Initial residual = 0.0114044, Final residual = 0.000374694, No Iterations 2
ExecutionTime = 8.67 s  ClockTime = 8 s

Time = 109

smoothSolver:  Solving for Ux, Initial residual = 0.00235551, Final residual = 0.000203107, No Iterations 2
smoothSolver:  Solving for Uy, Initial residual = 0.0324665, Final residual = 0.00246541, No Iterations 2
GAMG:  Solving for p, Initial residual = 0.0644409, Final residual = 0.00294504, No Iterations 2
time step continuity errors : sum local = 0.375567, global = -0.0839315, cumulative = -4.72182
smoothSolver:  Solving for omega, Initial residual = 9.66712e-05, Final residual = 2.54794e-06, No Iterations 2
smoothSolver:  Solving for k, Initial residual = 0.0113438, Final residual = 0.000372253, No Iterations 2
ExecutionTime = 8.74 s  ClockTime = 8 s

Time = 110

smoothSolver:  Solving for Ux, Initial residual = 0.00215048, Final residual = 0.000184665, No Iterations 2
smoothSolver:  Solving for Uy, Initial residual = 0.0323701, Final residual = 0.00246179, No Iterations 2
GAMG:  Solving for p, Initial residual = 0.0691843, Final residual = 0.00312653, No Iterations 2
time step continuity errors : sum local = 0.373371, global = -0.0862297, cumulative = -4.80805
smoothSolver:  Solving for omega, Initial residual = 7.81449e-05, Final residual = 2.06476e-06, No Iterations 2
smoothSolver:  Solving for k, Initial residual = 0.0113429, Final residual = 0.000376949, No Iterations 2
ExecutionTime = 8.83 s  ClockTime = 8 s

Time = 111

smoothSolver:  Solving for Ux, Initial residual = 0.0022963, Final residual = 0.000197109, No Iterations 2
smoothSolver:  Solving for Uy, Initial residual = 0.0324086, Final residual = 0.0024664, No Iterations 2
GAMG:  Solving for p, Initial residual = 0.076221, Final residual = 0.00382841, No Iterations 2
time step continuity errors : sum local = 0.423659, global = -0.0713511, cumulative = -4.8794
[...]
time step continuity errors : sum local = 0.000255793, global = -3.15561e-05, cumulative = -17.5119
smoothSolver:  Solving for omega, Initial residual = 4.13039e-07, Final residual = 3.88562e-08, No Iterations 2
smoothSolver:  Solving for k, Initial residual = 8.12796e-05, Final residual = 6.45808e-06, No Iterations 3
bounding k, min: -0.000197015 max: 46.7843 average: 6.91306
ExecutionTime = 161.47 s  ClockTime = 162 s

Time = 1976

smoothSolver:  Solving for Ux, Initial residual = 1.12302e-05, Final residual = 1.09619e-06, No Iterations 5
smoothSolver:  Solving for Uy, Initial residual = 0.000110428, Final residual = 8.79881e-06, No Iterations 4
GAMG:  Solving for p, Initial residual = 2.19679e-05, Final residual = 1.63465e-06, No Iterations 1
time step continuity errors : sum local = 0.000427988, global = -2.31589e-05, cumulative = -17.5119
smoothSolver:  Solving for omega, Initial residual = 4.04157e-07, Final residual = 3.82026e-08, No Iterations 2
smoothSolver:  Solving for k, Initial residual = 8.12324e-05, Final residual = 6.45033e-06, No Iterations 3
ExecutionTime = 161.54 s  ClockTime = 162 s

Time = 1977

smoothSolver:  Solving for Ux, Initial residual = 1.0846e-05, Final residual = 7.24776e-07, No Iterations 6
smoothSolver:  Solving for Uy, Initial residual = 0.000106981, Final residual = 8.73425e-06, No Iterations 4
GAMG:  Solving for p, Initial residual = 2.14471e-05, Final residual = 8.0549e-07, No Iterations 2
time step continuity errors : sum local = 0.000210847, global = -3.85166e-05, cumulative = -17.5119
smoothSolver:  Solving for omega, Initial residual = 4.09311e-07, Final residual = 3.87353e-08, No Iterations 2
smoothSolver:  Solving for k, Initial residual = 8.10974e-05, Final residual = 6.44311e-06, No Iterations 3
ExecutionTime = 161.63 s  ClockTime = 162 s

Time = 1978

smoothSolver:  Solving for Ux, Initial residual = 1.1011e-05, Final residual = 1.09535e-06, No Iterations 5
smoothSolver:  Solving for Uy, Initial residual = 0.00010902, Final residual = 8.61491e-06, No Iterations 4
GAMG:  Solving for p, Initial residual = 2.07941e-05, Final residual = 1.51263e-06, No Iterations 1
time step continuity errors : sum local = 0.000395927, global = -4.31725e-05, cumulative = -17.512
smoothSolver:  Solving for omega, Initial residual = 4.06049e-07, Final residual = 3.85382e-08, No Iterations 2
smoothSolver:  Solving for k, Initial residual = 8.10343e-05, Final residual = 6.43525e-06, No Iterations 3
bounding k, min: -0.000617242 max: 46.7785 average: 6.91378
ExecutionTime = 161.7 s  ClockTime = 162 s

Time = 1979

smoothSolver:  Solving for Ux, Initial residual = 1.07949e-05, Final residual = 7.22181e-07, No Iterations 6
smoothSolver:  Solving for Uy, Initial residual = 0.000110859, Final residual = 8.57194e-06, No Iterations 4
GAMG:  Solving for p, Initial residual = 2.38602e-05, Final residual = 8.63093e-07, No Iterations 2
time step continuity errors : sum local = 0.000225855, global = -4.0717e-05, cumulative = -17.512
smoothSolver:  Solving for omega, Initial residual = 4.07624e-07, Final residual = 3.86649e-08, No Iterations 2
smoothSolver:  Solving for k, Initial residual = 8.1258e-05, Final residual = 6.42831e-06, No Iterations 3
bounding k, min: -0.000191709 max: 46.7765 average: 6.91405
ExecutionTime = 161.79 s  ClockTime = 162 s

Time = 1980

smoothSolver:  Solving for Ux, Initial residual = 1.07428e-05, Final residual = 7.22288e-07, No Iterations 6
smoothSolver:  Solving for Uy, Initial residual = 0.000107048, Final residual = 8.56057e-06, No Iterations 4
GAMG:  Solving for p, Initial residual = 2.32343e-05, Final residual = 1.63425e-06, No Iterations 1
time step continuity errors : sum local = 0.000427628, global = -4.66988e-05, cumulative = -17.512
smoothSolver:  Solving for omega, Initial residual = 4.09601e-07, Final residual = 3.87529e-08, No Iterations 2
smoothSolver:  Solving for k, Initial residual = 8.10987e-05, Final residual = 6.42087e-06, No Iterations 3
ExecutionTime = 161.87 s  ClockTime = 162 s

Time = 1981

smoothSolver:  Solving for Ux, Initial residual = 1.10799e-05, Final residual = 1.08479e-06, No Iterations 5
smoothSolver:  Solving for Uy, Initial residual = 0.000105962, Final residual = 8.52659e-06, No Iterations 4
GAMG:  Solving for p, Initial residual = 2.16447e-05, Final residual = 9.15807e-07, No Iterations 2
time step continuity errors : sum local = 0.000239565, global = -5.04597e-05, cumulative = -17.5121
smoothSolver:  Solving for omega, Initial residual = 4.03607e-07, Final residual = 3.80602e-08, No Iterations 2
smoothSolver:  Solving for k, Initial residual = 8.12947e-05, Final residual = 6.41433e-06, No Iterations 3
ExecutionTime = 161.95 s  ClockTime = 162 s

Time = 1982

smoothSolver:  Solving for Ux, Initial residual = 1.08027e-05, Final residual = 7.17849e-07, No Iterations 6
smoothSolver:  Solving for Uy, Initial residual = 0.000106615, Final residual = 8.46491e-06, No Iterations 4
GAMG:  Solving for p, Initial residual = 2.07984e-05, Final residual = 1.47379e-06, No Iterations 1
time step continuity errors : sum local = 0.000385475, global = -5.0741e-05, cumulative = -17.5121
smoothSolver:  Solving for omega, Initial residual = 6.12964e-07, Final residual = 3.86845e-08, No Iterations 2
smoothSolver:  Solving for k, Initial residual = 8.11067e-05, Final residual = 6.40627e-06, No Iterations 3
bounding k, min: -0.000865734 max: 46.7707 average: 6.91474
ExecutionTime = 162.04 s  ClockTime = 162 s

Time = 1983

smoothSolver:  Solving for Ux, Initial residual = 1.06528e-05, Final residual = 7.16837e-07, No Iterations 6
smoothSolver:  Solving for Uy, Initial residual = 0.000106347, Final residual = 8.48632e-06, No Iterations 4
GAMG:  Solving for p, Initial residual = 2.16568e-05, Final residual = 9.5584e-07, No Iterations 2
time step continuity errors : sum local = 0.000249927, global = -4.20796e-05, cumulative = -17.5122
smoothSolver:  Solving for omega, Initial residual = 6.64616e-07, Final residual = 3.88815e-08, No Iterations 2
smoothSolver:  Solving for k, Initial residual = 8.05894e-05, Final residual = 6.39989e-06, No Iterations 3
ExecutionTime = 162.13 s  ClockTime = 162 s

Time = 1984

smoothSolver:  Solving for Ux, Initial residual = 1.06494e-05, Final residual = 7.15899e-07, No Iterations 6
smoothSolver:  Solving for Uy, Initial residual = 0.00010655, Final residual = 8.54688e-06, No Iterations 4
GAMG:  Solving for p, Initial residual = 2.05667e-05, Final residual = 1.41823e-06, No Iterations 1
time step continuity errors : sum local = 0.000370792, global = -2.6732e-05, cumulative = -17.5122
smoothSolver:  Solving for omega, Initial residual = 7.2644e-07, Final residual = 3.88532e-08, No Iterations 2
smoothSolver:  Solving for k, Initial residual = 8.03107e-05, Final residual = 6.39307e-06, No Iterations 3
ExecutionTime = 162.2 s  ClockTime = 162 s

Time = 1985

smoothSolver:  Solving for Ux, Initial residual = 1.18303e-05, Final residual = 1.06813e-06, No Iterations 5
smoothSolver:  Solving for Uy, Initial residual = 0.000105494, Final residual = 8.46304e-06, No Iterations 4
GAMG:  Solving for p, Initial residual = 2.08279e-05, Final residual = 8.36385e-07, No Iterations 2
time step continuity errors : sum local = 0.000218599, global = -4.66263e-05, cumulative = -17.5123
smoothSolver:  Solving for omega, Initial residual = 6.81089e-07, Final residual = 3.79781e-08, No Iterations 2
smoothSolver:  Solving for k, Initial residual = 8.02581e-05, Final residual = 6.38553e-06, No Iterations 3
ExecutionTime = 162.28 s  ClockTime = 163 s

Time = 1986

smoothSolver:  Solving for Ux, Initial residual = 1.09007e-05, Final residual = 1.07568e-06, No Iterations 5
smoothSolver:  Solving for Uy, Initial residual = 0.000103594, Final residual = 8.34531e-06, No Iterations 4
GAMG:  Solving for p, Initial residual = 1.97287e-05, Final residual = 1.44026e-06, No Iterations 1
time step continuity errors : sum local = 0.000376393, global = -4.01481e-05, cumulative = -17.5123
smoothSolver:  Solving for omega, Initial residual = 5.17479e-07, Final residual = 3.80508e-08, No Iterations 2
smoothSolver:  Solving for k, Initial residual = 8.00856e-05, Final residual = 6.379e-06, No Iterations 3
bounding k, min: -0.00140953 max: 46.7629 average: 6.91562
ExecutionTime = 162.36 s  ClockTime = 163 s

Time = 1987

smoothSolver:  Solving for Ux, Initial residual = 1.05609e-05, Final residual = 7.11918e-07, No Iterations 6
smoothSolver:  Solving for Uy, Initial residual = 0.000104739, Final residual = 8.31013e-06, No Iterations 4
GAMG:  Solving for p, Initial residual = 2.08507e-05, Final residual = 1.10184e-06, No Iterations 2
time step continuity errors : sum local = 0.000287857, global = -3.77664e-05, cumulative = -17.5123
smoothSolver:  Solving for omega, Initial residual = 4.46379e-07, Final residual = 3.86036e-08, No Iterations 2
smoothSolver:  Solving for k, Initial residual = 8.00308e-05, Final residual = 6.37194e-06, No Iterations 3
ExecutionTime = 162.45 s  ClockTime = 163 s

Time = 1988

smoothSolver:  Solving for Ux, Initial residual = 1.05466e-05, Final residual = 7.11282e-07, No Iterations 6
smoothSolver:  Solving for Uy, Initial residual = 0.000103282, Final residual = 8.30308e-06, No Iterations 4
GAMG:  Solving for p, Initial residual = 2.04328e-05, Final residual = 1.43876e-06, No Iterations 1
time step continuity errors : sum local = 0.000375796, global = -3.26016e-05, cumulative = -17.5124
smoothSolver:  Solving for omega, Initial residual = 4.19339e-07, Final residual = 3.85496e-08, No Iterations 2
smoothSolver:  Solving for k, Initial residual = 7.98773e-05, Final residual = 6.36572e-06, No Iterations 3
bounding k, min: -5.46115e-05 max: 46.759 average: 6.91606
ExecutionTime = 162.53 s  ClockTime = 163 s

Time = 1989

smoothSolver:  Solving for Ux, Initial residual = 1.06308e-05, Final residual = 7.07394e-07, No Iterations 6
smoothSolver:  Solving for Uy, Initial residual = 0.00010158, Final residual = 8.30155e-06, No Iterations 4
GAMG:  Solving for p, Initial residual = 2.06876e-05, Final residual = 8.75109e-07, No Iterations 2
time step continuity errors : sum local = 0.000228498, global = -4.27865e-05, cumulative = -17.5124
smoothSolver:  Solving for omega, Initial residual = 4.07254e-07, Final residual = 3.83662e-08, No Iterations 2
smoothSolver:  Solving for k, Initial residual = 7.98324e-05, Final residual = 6.35832e-06, No Iterations 3
bounding k, min: -0.000247776 max: 46.757 average: 6.91628
ExecutionTime = 162.62 s  ClockTime = 163 s

Time = 1990

smoothSolver:  Solving for Ux, Initial residual = 1.0484e-05, Final residual = 7.08235e-07, No Iterations 6
smoothSolver:  Solving for Uy, Initial residual = 0.000102329, Final residual = 8.35689e-06, No Iterations 4
GAMG:  Solving for p, Initial residual = 1.97017e-05, Final residual = 1.52828e-06, No Iterations 1
time step continuity errors : sum local = 0.000398995, global = -4.90391e-05, cumulative = -17.5125
smoothSolver:  Solving for omega, Initial residual = 4.03698e-07, Final residual = 3.84799e-08, No Iterations 2
smoothSolver:  Solving for k, Initial residual = 7.9642e-05, Final residual = 6.35199e-06, No Iterations 3
bounding k, min: -0.000900382 max: 46.7551 average: 6.9165
ExecutionTime = 162.7 s  ClockTime = 163 s

Time = 1991

smoothSolver:  Solving for Ux, Initial residual = 1.07977e-05, Final residual = 1.06552e-06, No Iterations 5
smoothSolver:  Solving for Uy, Initial residual = 0.000100552, Final residual = 8.31749e-06, No Iterations 4
GAMG:  Solving for p, Initial residual = 2.12071e-05, Final residual = 1.02973e-06, No Iterations 2
time step continuity errors : sum local = 0.000268751, global = -4.25295e-05, cumulative = -17.5125
smoothSolver:  Solving for omega, Initial residual = 3.97463e-07, Final residual = 3.8008e-08, No Iterations 2
smoothSolver:  Solving for k, Initial residual = 7.96216e-05, Final residual = 6.34533e-06, No Iterations 3
bounding k, min: -0.000351796 max: 46.7531 average: 6.91671
ExecutionTime = 162.78 s  ClockTime = 163 s

Time = 1992

smoothSolver:  Solving for Ux, Initial residual = 1.05173e-05, Final residual = 7.05685e-07, No Iterations 6
smoothSolver:  Solving for Uy, Initial residual = 0.000103526, Final residual = 8.15865e-06, No Iterations 4
GAMG:  Solving for p, Initial residual = 2.04881e-05, Final residual = 1.59651e-06, No Iterations 1
time step continuity errors : sum local = 0.000416601, global = -6.03722e-05, cumulative = -17.5126
smoothSolver:  Solving for omega, Initial residual = 4.01164e-07, Final residual = 3.84149e-08, No Iterations 2
smoothSolver:  Solving for k, Initial residual = 7.94374e-05, Final residual = 6.33869e-06, No Iterations 3
bounding k, min: -0.000423888 max: 46.7512 average: 6.91693
ExecutionTime = 162.87 s  ClockTime = 162 s

Time = 1993

smoothSolver:  Solving for Ux, Initial residual = 1.04401e-05, Final residual = 7.04286e-07, No Iterations 6
smoothSolver:  Solving for Uy, Initial residual = 9.86402e-05, Final residual = 8.17017e-06, No Iterations 4
GAMG:  Solving for p, Initial residual = 2.25312e-05, Final residual = 1.3119e-06, No Iterations 2
time step continuity errors : sum local = 0.000342235, global = -2.61799e-05, cumulative = -17.5126
smoothSolver:  Solving for omega, Initial residual = 4.02151e-07, Final residual = 3.85798e-08, No Iterations 2
smoothSolver:  Solving for k, Initial residual = 7.93537e-05, Final residual = 6.33153e-06, No Iterations 3
ExecutionTime = 162.95 s  ClockTime = 162 s

Time = 1994

smoothSolver:  Solving for Ux, Initial residual = 1.04218e-05, Final residual = 7.02629e-07, No Iterations 6
smoothSolver:  Solving for Uy, Initial residual = 0.000100129, Final residual = 8.22264e-06, No Iterations 4
GAMG:  Solving for p, Initial residual = 2.24367e-05, Final residual = 1.70817e-06, No Iterations 1
time step continuity errors : sum local = 0.00044551, global = -3.15165e-05, cumulative = -17.5126
smoothSolver:  Solving for omega, Initial residual = 3.99701e-07, Final residual = 3.84031e-08, No Iterations 2
smoothSolver:  Solving for k, Initial residual = 7.91593e-05, Final residual = 6.32468e-06, No Iterations 3
ExecutionTime = 163.04 s  ClockTime = 162 s

Time = 1995

smoothSolver:  Solving for Ux, Initial residual = 1.03941e-05, Final residual = 7.01425e-07, No Iterations 6
smoothSolver:  Solving for Uy, Initial residual = 0.000102467, Final residual = 8.23105e-06, No Iterations 4
GAMG:  Solving for p, Initial residual = 2.18924e-05, Final residual = 8.61056e-07, No Iterations 2
time step continuity errors : sum local = 0.000224511, global = -4.63309e-05, cumulative = -17.5127
smoothSolver:  Solving for omega, Initial residual = 4.01246e-07, Final residual = 3.86094e-08, No Iterations 2
smoothSolver:  Solving for k, Initial residual = 7.90662e-05, Final residual = 6.31818e-06, No Iterations 3
ExecutionTime = 163.12 s  ClockTime = 162 s

Time = 1996

smoothSolver:  Solving for Ux, Initial residual = 1.09864e-05, Final residual = 1.05505e-06, No Iterations 5
smoothSolver:  Solving for Uy, Initial residual = 0.000115192, Final residual = 8.14414e-06, No Iterations 4
GAMG:  Solving for p, Initial residual = 2.06186e-05, Final residual = 1.76718e-06, No Iterations 1
time step continuity errors : sum local = 0.00046076, global = -7.10639e-05, cumulative = -17.5127
smoothSolver:  Solving for omega, Initial residual = 3.94233e-07, Final residual = 3.77629e-08, No Iterations 2
smoothSolver:  Solving for k, Initial residual = 7.90093e-05, Final residual = 6.3118e-06, No Iterations 3
ExecutionTime = 163.19 s  ClockTime = 162 s

Time = 1997

smoothSolver:  Solving for Ux, Initial residual = 1.1262e-05, Final residual = 1.05778e-06, No Iterations 5
smoothSolver:  Solving for Uy, Initial residual = 0.000184257, Final residual = 1.30479e-05, No Iterations 3
GAMG:  Solving for p, Initial residual = 2.65207e-05, Final residual = 1.4752e-06, No Iterations 2
time step continuity errors : sum local = 0.000384533, global = -3.56634e-05, cumulative = -17.5128
smoothSolver:  Solving for omega, Initial residual = 4.04956e-07, Final residual = 3.84184e-08, No Iterations 2
smoothSolver:  Solving for k, Initial residual = 7.92497e-05, Final residual = 6.30464e-06, No Iterations 3
bounding k, min: -0.000578786 max: 46.7418 average: 6.91804
ExecutionTime = 163.28 s  ClockTime = 162 s

Time = 1998

smoothSolver:  Solving for Ux, Initial residual = 1.03318e-05, Final residual = 6.9908e-07, No Iterations 6
smoothSolver:  Solving for Uy, Initial residual = 9.82788e-05, Final residual = 8.27474e-06, No Iterations 4
GAMG:  Solving for p, Initial residual = 2.29227e-05, Final residual = 2.04503e-06, No Iterations 1
time step continuity errors : sum local = 0.000532946, global = -6.46383e-05, cumulative = -17.5128
smoothSolver:  Solving for omega, Initial residual = 6.15754e-07, Final residual = 3.86283e-08, No Iterations 2
smoothSolver:  Solving for k, Initial residual = 7.9136e-05, Final residual = 6.29761e-06, No Iterations 3
bounding k, min: -0.000196469 max: 46.74 average: 6.91823
ExecutionTime = 163.35 s  ClockTime = 162 s

Time = 1999

smoothSolver:  Solving for Ux, Initial residual = 1.0317e-05, Final residual = 6.96567e-07, No Iterations 6
smoothSolver:  Solving for Uy, Initial residual = 9.70306e-05, Final residual = 8.17054e-06, No Iterations 4
GAMG:  Solving for p, Initial residual = 2.25258e-05, Final residual = 9.88774e-07, No Iterations 2
time step continuity errors : sum local = 0.000257618, global = -4.82079e-05, cumulative = -17.5129
smoothSolver:  Solving for omega, Initial residual = 6.65564e-07, Final residual = 3.87648e-08, No Iterations 2
smoothSolver:  Solving for k, Initial residual = 7.87864e-05, Final residual = 6.29142e-06, No Iterations 3
bounding k, min: -0.000782586 max: 46.7382 average: 6.91844
ExecutionTime = 163.44 s  ClockTime = 162 s

Time = 2000

smoothSolver:  Solving for Ux, Initial residual = 1.12169e-05, Final residual = 1.04414e-06, No Iterations 5
smoothSolver:  Solving for Uy, Initial residual = 9.98088e-05, Final residual = 7.95601e-06, No Iterations 4
GAMG:  Solving for p, Initial residual = 2.09783e-05, Final residual = 1.88906e-06, No Iterations 1
time step continuity errors : sum local = 0.000492157, global = -6.24111e-05, cumulative = -17.513
smoothSolver:  Solving for omega, Initial residual = 7.18422e-07, Final residual = 3.79424e-08, No Iterations 2
smoothSolver:  Solving for k, Initial residual = 7.86678e-05, Final residual = 6.28448e-06, No Iterations 3
bounding k, min: -1.98977e-05 max: 46.7364 average: 6.91864
ExecutionTime = 163.65 s  ClockTime = 163 s

    functionObjects::turbulenceFields stressComponents writing field: turbulenceProperties:devReff

    functionObjects::pressure pressureCoefficient writing field: cp
writeCellCentres writeCellCentres write:
    writing cell-centres field C to 2000
    Writing the x component field of the cell-centres Cx to 2000
    Writing the y component field of the cell-centres Cy to 2000
    Writing the z component field of the cell-centres Cz to 2000
wallShearStress wallShearStress write:
    writing field wallShearStress
    min/max(lowerWallStartup) = (-2.1108 2.30646e-05 0), (-0.357304 0.131029 0)
    min/max(upperWallStartup) = (-0.936941 -0.00317703 0), (-0.00852623 0.00221614 0)
    min/max(upperWall) = (-11.9891 -0.00340273 0), (-0.0120599 0.00380516 0)
    min/max(verticalWall) = (-0.0406132 -0.386768 0), (3.0199 9.44041 0)
    min/max(lowerWall) = (-1.17326 -0.00335912 0), (1.00429 0.0291764 0)
yPlus yPlus write:
    writing field yPlus
    patch lowerWallStartup y+ : min = 0.351712, max = 0.855045, average = 0.614339
    patch upperWallStartup y+ : min = 0.0543528, max = 0.153947, average = 0.126951
    patch upperWall y+ : min = 0.0646399, max = 0.749018, average = 0.338732
    patch verticalWall y+ : min = 0.0686727, max = 5.63048, average = 1.65104
    patch lowerWall y+ : min = 0.0311167, max = 0.803379, average = 0.57635
End

